# generated using pymatgen
data_Fe4Mo12CS16O
_symmetry_space_group_name_H-M   'P 1'
_cell_length_a   6.48394610
_cell_length_b   6.41202525
_cell_length_c   27.90841600
_cell_angle_alpha   93.69337570
_cell_angle_beta   94.75362703
_cell_angle_gamma   97.43854579
_symmetry_Int_Tables_number   1
_chemical_formula_structural   Fe4Mo12CS16O
_chemical_formula_sum   'Fe4 Mo12 C1 S16 O1'
_cell_volume   1143.25638445
_cell_formula_units_Z   1
loop_
 _symmetry_equiv_pos_site_id
 _symmetry_equiv_pos_as_xyz
  1  'x, y, z'
loop_
 _atom_site_type_symbol
 _atom_site_label
 _atom_site_symmetry_multiplicity
 _atom_site_fract_x
 _atom_site_fract_y
 _atom_site_fract_z
 _atom_site_occupancy
  Fe  Fe0  1  0.93378381  0.15516000  0.46282392  1
  Fe  Fe1  1  0.86791714  0.12554984  0.67724667  1
  Fe  Fe2  1  0.06524100  0.84263700  0.26375600  1
  Fe  Fe3  1  0.04571618  0.83132913  0.49790416  1
  Mo  Mo4  1  0.21945693  0.53891371  0.34307583  1
  Mo  Mo5  1  0.19560491  0.53112783  0.57437965  1
  Mo  Mo6  1  0.78011333  0.45971454  0.38735019  1
  Mo  Mo7  1  0.75816527  0.44374824  0.61765205  1
  Mo  Mo8  1  0.40694859  0.21736712  0.37459478  1
  Mo  Mo9  1  0.38203377  0.20790397  0.60649247  1
  Mo  Mo10  1  0.59240846  0.78235331  0.35553742  1
  Mo  Mo11  1  0.57021779  0.76949932  0.58705591  1
  Mo  Mo12  1  0.54135300  0.40905600  0.30082200  1
  Mo  Mo13  1  0.52057755  0.39881087  0.53098705  1
  Mo  Mo14  1  0.45452776  0.59023779  0.43036432  1
  Mo  Mo15  1  0.43497984  0.57869673  0.65998393  1
  S  S16  1  0.13072799  0.36043743  0.41612613  1
  S  S17  1  0.10885766  0.35275434  0.64961931  1
  S  S18  1  0.86842500  0.63937200  0.31349000  1
  S  S19  1  0.84637466  0.62849625  0.54542625  1
  S  S20  1  0.72301900  0.14241800  0.33608800  1
  S  S21  1  0.69692840  0.12880540  0.56567905  1
  S  S22  1  0.27691694  0.85734893  0.39450137  1
  S  S23  1  0.25602871  0.84884381  0.62763511  1
  S  S24  1  0.38478400  0.73178900  0.28021200  1
  S  S25  1  0.36482675  0.72259866  0.51091607  1
  S  S26  1  0.61290457  0.26728815  0.45069622  1
  S  S27  1  0.58236118  0.27007461  0.68357108  1
  S  S28  1  0.20162900  0.19284800  0.29629700  1
  S  S29  1  0.17798992  0.18624742  0.52666663  1
  S  S30  1  0.79669051  0.80480682  0.43497023  1
  S  S31  1  0.77582342  0.77951451  0.66573026  1
  O  O32  1  0.93220551  0.12362448  0.78042903  1
  C  C33  1  0.92530444  0.12909012  0.73847791  1
