# generated using pymatgen
data_Mo12HS24
_symmetry_space_group_name_H-M   'P 1'
_cell_length_a   6.31973600
_cell_length_b   12.46268000
_cell_length_c   24.68128287
_cell_angle_alpha   90.00000000
_cell_angle_beta   93.66151225
_cell_angle_gamma   90.00000000
_symmetry_Int_Tables_number   1
_chemical_formula_structural   Mo12HS24
_chemical_formula_sum   'Mo12 H1 S24'
_cell_volume   1939.95071504
_cell_formula_units_Z   1
loop_
 _symmetry_equiv_pos_site_id
 _symmetry_equiv_pos_as_xyz
  1  'x, y, z'
loop_
 _atom_site_type_symbol
 _atom_site_label
 _atom_site_symmetry_multiplicity
 _atom_site_fract_x
 _atom_site_fract_y
 _atom_site_fract_z
 _atom_site_occupancy
  Mo  Mo0  1  0.34212400  0.25000000  0.37044000  1
  Mo  Mo1  1  0.84212400  0.25000000  0.37044000  1
  Mo  Mo2  1  0.10232000  0.75000000  0.40733800  1
  Mo  Mo3  1  0.60232000  0.75000000  0.40733800  1
  Mo  Mo4  1  0.11964677  0.25000119  0.48165922  1
  Mo  Mo5  1  0.62025547  0.25000241  0.48165962  1
  Mo  Mo6  1  0.38072689  0.74999708  0.52063069  1
  Mo  Mo7  1  0.88080715  0.74999907  0.52086346  1
  Mo  Mo8  1  0.39821556  0.25000710  0.59491717  1
  Mo  Mo9  1  0.89824480  0.25001535  0.59498696  1
  Mo  Mo10  1  0.19071737  0.74999332  0.62745133  1
  Mo  Mo11  1  0.62459731  0.74999091  0.62746128  1
  S  S12  1  0.10138600  0.37552900  0.40747300  1
  S  S13  1  0.60138600  0.37552900  0.40747300  1
  S  S14  1  0.34305100  0.87552500  0.37029900  1
  S  S15  1  0.84305100  0.87552500  0.37029900  1
  S  S16  1  0.10138600  0.12447100  0.40747300  1
  S  S17  1  0.60138600  0.12447100  0.40747300  1
  S  S18  1  0.34305100  0.62447500  0.37029900  1
  S  S19  1  0.84305100  0.62447500  0.37029900  1
  S  S20  1  0.37945500  0.37425060  0.51968241  1
  S  S21  1  0.87952509  0.37455490  0.51996143  1
  S  S22  1  0.11887878  0.87394725  0.48254803  1
  S  S23  1  0.62349259  0.87394038  0.48254701  1
  S  S24  1  0.37945728  0.12575818  0.51968557  1
  S  S25  1  0.87952517  0.12545684  0.51996825  1
  S  S26  1  0.11887580  0.62604760  0.48254742  1
  S  S27  1  0.62349467  0.62605494  0.48254653  1
  S  S28  1  0.15801564  0.37361878  0.63236240  1
  S  S29  1  0.65710010  0.37361061  0.63236993  1
  S  S30  1  0.39871158  0.88472221  0.59176965  1
  S  S31  1  0.90075142  0.87093390  0.60006153  1
  S  S32  1  0.15801598  0.12639859  0.63236215  1
  S  S33  1  0.65709508  0.12640698  0.63236998  1
  S  S34  1  0.39870679  0.61525993  0.59176770  1
  S  S35  1  0.90075333  0.62905314  0.60005892  1
  H  H36  1  0.42092806  0.74997854  0.68082260  1
