# generated using pymatgen
data_Cu4Mo12H(S8N)2
_symmetry_space_group_name_H-M   'P 1'
_cell_length_a   6.46503600
_cell_length_b   6.38873881
_cell_length_c   27.95633100
_cell_angle_alpha   92.75453660
_cell_angle_beta   96.62629410
_cell_angle_gamma   95.95021841
_symmetry_Int_Tables_number   1
_chemical_formula_structural   Cu4Mo12H(S8N)2
_chemical_formula_sum   'Cu4 Mo12 H1 S16 N2'
_cell_volume   1138.69222190
_cell_formula_units_Z   1
loop_
 _symmetry_equiv_pos_site_id
 _symmetry_equiv_pos_as_xyz
  1  'x, y, z'
loop_
 _atom_site_type_symbol
 _atom_site_label
 _atom_site_symmetry_multiplicity
 _atom_site_fract_x
 _atom_site_fract_y
 _atom_site_fract_z
 _atom_site_occupancy
  Cu  Cu0  1  0.93493030  0.16360612  0.46104461  1
  Cu  Cu1  1  0.07235539  0.03694862  0.67774801  1
  Cu  Cu2  1  0.05968000  0.84039500  0.27086500  1
  Cu  Cu3  1  0.04352350  0.84049004  0.50406886  1
  Mo  Mo4  1  0.21521500  0.54428600  0.34262100  1
  Mo  Mo5  1  0.19580366  0.54247613  0.57664408  1
  Mo  Mo6  1  0.78241630  0.45603211  0.38902101  1
  Mo  Mo7  1  0.75848524  0.45828213  0.62145298  1
  Mo  Mo8  1  0.40500899  0.21755808  0.37518802  1
  Mo  Mo9  1  0.39003784  0.22418182  0.60982802  1
  Mo  Mo10  1  0.59495600  0.78352200  0.35564700  1
  Mo  Mo11  1  0.57349856  0.78403269  0.58727319  1
  Mo  Mo12  1  0.53596300  0.40601700  0.30007200  1
  Mo  Mo13  1  0.51757600  0.40655681  0.53140186  1
  Mo  Mo14  1  0.46025917  0.59414124  0.43232253  1
  Mo  Mo15  1  0.44654737  0.58864676  0.66192312  1
  S  S16  1  0.13945921  0.36794817  0.41665560  1
  S  S17  1  0.11545844  0.38024547  0.65356014  1
  S  S18  1  0.85836300  0.62855700  0.31503700  1
  S  S19  1  0.83830680  0.63268116  0.54697758  1
  S  S20  1  0.72038700  0.13919400  0.33837300  1
  S  S21  1  0.69992573  0.14088500  0.57126315  1
  S  S22  1  0.27805349  0.86105973  0.39306572  1
  S  S23  1  0.26019182  0.86222538  0.62779278  1
  S  S24  1  0.38464800  0.73460900  0.27877900  1
  S  S25  1  0.36472595  0.73250320  0.51024545  1
  S  S26  1  0.61010648  0.26649992  0.45323577  1
  S  S27  1  0.60765922  0.28529597  0.68758361  1
  S  S28  1  0.19156400  0.20303200  0.29614100  1
  S  S29  1  0.17480025  0.20324935  0.52959796  1
  S  S30  1  0.80449464  0.79817547  0.43560913  1
  S  S31  1  0.78157833  0.79939424  0.66599082  1
  N  N32  1  0.09811734  0.07901452  0.74632380  1
  N  N33  1  0.98618174  0.13587867  0.77413339  1
  H  H34  1  0.03279970  0.12267306  0.81121122  1
