# generated using pymatgen
data_Mo12HS24
_symmetry_space_group_name_H-M   'P 1'
_cell_length_a   6.31973600
_cell_length_b   12.46268000
_cell_length_c   24.68128287
_cell_angle_alpha   90.00000000
_cell_angle_beta   93.66151225
_cell_angle_gamma   90.00000000
_symmetry_Int_Tables_number   1
_chemical_formula_structural   Mo12HS24
_chemical_formula_sum   'Mo12 H1 S24'
_cell_volume   1939.95071504
_cell_formula_units_Z   1
loop_
 _symmetry_equiv_pos_site_id
 _symmetry_equiv_pos_as_xyz
  1  'x, y, z'
loop_
 _atom_site_type_symbol
 _atom_site_label
 _atom_site_symmetry_multiplicity
 _atom_site_fract_x
 _atom_site_fract_y
 _atom_site_fract_z
 _atom_site_occupancy
  Mo  Mo0  1  0.34212400  0.25000000  0.37044000  1
  Mo  Mo1  1  0.84212400  0.25000000  0.37044000  1
  Mo  Mo2  1  0.10232000  0.75000000  0.40733800  1
  Mo  Mo3  1  0.60232000  0.75000000  0.40733800  1
  Mo  Mo4  1  0.11977239  0.24999608  0.48202385  1
  Mo  Mo5  1  0.62031111  0.24999785  0.48202385  1
  Mo  Mo6  1  0.38045350  0.74999495  0.51951769  1
  Mo  Mo7  1  0.88074230  0.74999879  0.52057160  1
  Mo  Mo8  1  0.39848539  0.24999583  0.59582494  1
  Mo  Mo9  1  0.89849613  0.25000063  0.59583451  1
  Mo  Mo10  1  0.18864913  0.74998416  0.62678693  1
  Mo  Mo11  1  0.62618823  0.74998154  0.62677601  1
  S  S12  1  0.10138600  0.37552900  0.40747300  1
  S  S13  1  0.60138600  0.37552900  0.40747300  1
  S  S14  1  0.34305100  0.87552500  0.37029900  1
  S  S15  1  0.84305100  0.87552500  0.37029900  1
  S  S16  1  0.10138600  0.12447100  0.40747300  1
  S  S17  1  0.60138600  0.12447100  0.40747300  1
  S  S18  1  0.34305100  0.62447500  0.37029900  1
  S  S19  1  0.84305100  0.62447500  0.37029900  1
  S  S20  1  0.37960232  0.37389516  0.52025992  1
  S  S21  1  0.87965422  0.37415317  0.52046481  1
  S  S22  1  0.11858921  0.87428903  0.48226660  1
  S  S23  1  0.62366567  0.87428080  0.48226761  1
  S  S24  1  0.37960408  0.12609745  0.52026059  1
  S  S25  1  0.87965310  0.12584280  0.52046712  1
  S  S26  1  0.11858403  0.62570603  0.48226456  1
  S  S27  1  0.62366876  0.62571470  0.48226565  1
  S  S28  1  0.15829555  0.37391272  0.63348340  1
  S  S29  1  0.65750551  0.37390903  0.63348695  1
  S  S30  1  0.39839498  0.88332702  0.59080580  1
  S  S31  1  0.90050842  0.87121159  0.59927777  1
  S  S32  1  0.15829334  0.12607970  0.63348353  1
  S  S33  1  0.65750448  0.12608358  0.63348711  1
  S  S34  1  0.39838894  0.61664213  0.59080018  1
  S  S35  1  0.90050861  0.62876073  0.59926859  1
  H  H36  1  0.42081967  0.74997565  0.68045567  1
