# generated using pymatgen
data_Cu4Mo12HS16
_symmetry_space_group_name_H-M   'P 1'
_cell_length_a   6.46503600
_cell_length_b   6.38873881
_cell_length_c   27.95633100
_cell_angle_alpha   92.75453660
_cell_angle_beta   96.62629410
_cell_angle_gamma   95.95021841
_symmetry_Int_Tables_number   1
_chemical_formula_structural   Cu4Mo12HS16
_chemical_formula_sum   'Cu4 Mo12 H1 S16'
_cell_volume   1138.69222190
_cell_formula_units_Z   1
loop_
 _symmetry_equiv_pos_site_id
 _symmetry_equiv_pos_as_xyz
  1  'x, y, z'
loop_
 _atom_site_type_symbol
 _atom_site_label
 _atom_site_symmetry_multiplicity
 _atom_site_fract_x
 _atom_site_fract_y
 _atom_site_fract_z
 _atom_site_occupancy
  Cu  Cu0  1  0.94167325  0.16064459  0.46119079  1
  Cu  Cu1  1  0.91089059  0.11336524  0.66719545  1
  Cu  Cu2  1  0.05968000  0.84039500  0.27086500  1
  Cu  Cu3  1  0.05784061  0.83688097  0.50319338  1
  Mo  Mo4  1  0.21521500  0.54428600  0.34262100  1
  Mo  Mo5  1  0.21099979  0.54173351  0.57619672  1
  Mo  Mo6  1  0.78443300  0.45614787  0.38891096  1
  Mo  Mo7  1  0.79162951  0.44828296  0.61985648  1
  Mo  Mo8  1  0.40599200  0.21774891  0.37526499  1
  Mo  Mo9  1  0.41232763  0.21118459  0.60855853  1
  Mo  Mo10  1  0.59495600  0.78352200  0.35564700  1
  Mo  Mo11  1  0.59575409  0.78152087  0.58848304  1
  Mo  Mo12  1  0.53596300  0.40601700  0.30007200  1
  Mo  Mo13  1  0.53310612  0.40456471  0.53170455  1
  Mo  Mo14  1  0.46353191  0.59429395  0.43248964  1
  Mo  Mo15  1  0.47812112  0.58597551  0.66416737  1
  S  S16  1  0.14207147  0.36927714  0.41696031  1
  S  S17  1  0.15002601  0.37290384  0.65123513  1
  S  S18  1  0.85836300  0.62855700  0.31503700  1
  S  S19  1  0.85695910  0.62673253  0.54715386  1
  S  S20  1  0.72038700  0.13919400  0.33837300  1
  S  S21  1  0.72012893  0.13462786  0.56828196  1
  S  S22  1  0.27958900  0.86078624  0.39343189  1
  S  S23  1  0.29155864  0.85712967  0.62914005  1
  S  S24  1  0.38464800  0.73460900  0.27877900  1
  S  S25  1  0.38132399  0.73222468  0.51181558  1
  S  S26  1  0.61520017  0.26565928  0.45286393  1
  S  S27  1  0.62686664  0.26933794  0.68680691  1
  S  S28  1  0.19156400  0.20303200  0.29614100  1
  S  S29  1  0.18871890  0.20218903  0.52904879  1
  S  S30  1  0.80846532  0.79665961  0.43609908  1
  S  S31  1  0.82190229  0.77610053  0.66926235  1
  H  H32  1  0.46471272  0.66471607  0.72406411  1
