# generated using pymatgen
data_Mo12HS24
_symmetry_space_group_name_H-M   'P 1'
_cell_length_a   6.31973600
_cell_length_b   12.46268000
_cell_length_c   24.68128287
_cell_angle_alpha   90.00000000
_cell_angle_beta   93.66151225
_cell_angle_gamma   90.00000000
_symmetry_Int_Tables_number   1
_chemical_formula_structural   Mo12HS24
_chemical_formula_sum   'Mo12 H1 S24'
_cell_volume   1939.95071504
_cell_formula_units_Z   1
loop_
 _symmetry_equiv_pos_site_id
 _symmetry_equiv_pos_as_xyz
  1  'x, y, z'
loop_
 _atom_site_type_symbol
 _atom_site_label
 _atom_site_symmetry_multiplicity
 _atom_site_fract_x
 _atom_site_fract_y
 _atom_site_fract_z
 _atom_site_occupancy
  Mo  Mo0  1  0.34212400  0.25000000  0.37044000  1
  Mo  Mo1  1  0.84212400  0.25000000  0.37044000  1
  Mo  Mo2  1  0.10232000  0.75000000  0.40733800  1
  Mo  Mo3  1  0.60232000  0.75000000  0.40733800  1
  Mo  Mo4  1  0.11990092  0.24999745  0.48151275  1
  Mo  Mo5  1  0.61989925  0.24999719  0.48150430  1
  Mo  Mo6  1  0.37928579  0.74999951  0.52031211  1
  Mo  Mo7  1  0.88195683  0.74999959  0.52030249  1
  Mo  Mo8  1  0.39825755  0.24999883  0.59467911  1
  Mo  Mo9  1  0.89814156  0.24999975  0.59467904  1
  Mo  Mo10  1  0.15758355  0.74999139  0.62770701  1
  Mo  Mo11  1  0.65776631  0.74998887  0.62854479  1
  S  S12  1  0.10138600  0.37552900  0.40747300  1
  S  S13  1  0.60138600  0.37552900  0.40747300  1
  S  S14  1  0.34305100  0.87552500  0.37029900  1
  S  S15  1  0.84305100  0.87552500  0.37029900  1
  S  S16  1  0.10138600  0.12447100  0.40747300  1
  S  S17  1  0.60138600  0.12447100  0.40747300  1
  S  S18  1  0.34305100  0.62447500  0.37029900  1
  S  S19  1  0.84305100  0.62447500  0.37029900  1
  S  S20  1  0.37944338  0.37441956  0.51956167  1
  S  S21  1  0.87938300  0.37442030  0.51956139  1
  S  S22  1  0.12111816  0.87470189  0.48235838  1
  S  S23  1  0.62115218  0.87360930  0.48252264  1
  S  S24  1  0.37944319  0.12557844  0.51956295  1
  S  S25  1  0.87938391  0.12557806  0.51956309  1
  S  S26  1  0.12111776  0.62529647  0.48235857  1
  S  S27  1  0.62115192  0.62638897  0.48252251  1
  S  S28  1  0.15753028  0.37391540  0.63204716  1
  S  S29  1  0.65755213  0.37389871  0.63213283  1
  S  S30  1  0.40071605  0.87637452  0.59615255  1
  S  S31  1  0.89856633  0.87636437  0.59615086  1
  S  S32  1  0.15752865  0.12607584  0.63204557  1
  S  S33  1  0.65754964  0.12609236  0.63213061  1
  S  S34  1  0.40071239  0.62360942  0.59614969  1
  S  S35  1  0.89856804  0.62361940  0.59614792  1
  H  H36  1  0.67545007  0.74999399  0.69968239  1
