# generated using pymatgen
data_Cu4Mo12HC(S8O)2
_symmetry_space_group_name_H-M   'P 1'
_cell_length_a   6.46503600
_cell_length_b   6.38873881
_cell_length_c   27.95633100
_cell_angle_alpha   92.75453660
_cell_angle_beta   96.62629410
_cell_angle_gamma   95.95021841
_symmetry_Int_Tables_number   1
_chemical_formula_structural   Cu4Mo12HC(S8O)2
_chemical_formula_sum   'Cu4 Mo12 H1 C1 S16 O2'
_cell_volume   1138.69222190
_cell_formula_units_Z   1
loop_
 _symmetry_equiv_pos_site_id
 _symmetry_equiv_pos_as_xyz
  1  'x, y, z'
loop_
 _atom_site_type_symbol
 _atom_site_label
 _atom_site_symmetry_multiplicity
 _atom_site_fract_x
 _atom_site_fract_y
 _atom_site_fract_z
 _atom_site_occupancy
  Cu  Cu0  1  0.93998589  0.15255671  0.46083645  1
  Cu  Cu1  1  0.99242821  0.02695928  0.63149928  1
  Cu  Cu2  1  0.05968000  0.84039500  0.27086500  1
  Cu  Cu3  1  0.05572872  0.82658926  0.50281252  1
  Mo  Mo4  1  0.21521500  0.54428600  0.34262100  1
  Mo  Mo5  1  0.20953414  0.52990367  0.57600628  1
  Mo  Mo6  1  0.77977280  0.45540324  0.38857417  1
  Mo  Mo7  1  0.78427039  0.43625566  0.62081655  1
  Mo  Mo8  1  0.40480670  0.21610253  0.37514383  1
  Mo  Mo9  1  0.40884196  0.20129904  0.60792157  1
  Mo  Mo10  1  0.59495600  0.78352200  0.35564700  1
  Mo  Mo11  1  0.59111657  0.76732558  0.58787002  1
  Mo  Mo12  1  0.53596300  0.40601700  0.30007200  1
  Mo  Mo13  1  0.53259070  0.39493526  0.53163706  1
  Mo  Mo14  1  0.46118791  0.59018742  0.43172255  1
  Mo  Mo15  1  0.46961833  0.56849546  0.66426510  1
  S  S16  1  0.13870959  0.36585850  0.41654968  1
  S  S17  1  0.13823022  0.36490075  0.65056983  1
  S  S18  1  0.85836300  0.62855700  0.31503700  1
  S  S19  1  0.85544759  0.61743377  0.54695429  1
  S  S20  1  0.72038700  0.13919400  0.33837300  1
  S  S21  1  0.71684112  0.12012673  0.56798011  1
  S  S22  1  0.27843635  0.85928215  0.39369680  1
  S  S23  1  0.28552728  0.84386806  0.62890664  1
  S  S24  1  0.38464800  0.73460900  0.27877900  1
  S  S25  1  0.37945324  0.72199416  0.51124747  1
  S  S26  1  0.61474949  0.26211710  0.45243917  1
  S  S27  1  0.63328148  0.25751823  0.68473276  1
  S  S28  1  0.19156400  0.20303200  0.29614100  1
  S  S29  1  0.18926355  0.19280086  0.52819104  1
  S  S30  1  0.80558135  0.79451585  0.43591197  1
  S  S31  1  0.81618233  0.76941128  0.66908277  1
  C  C32  1  0.45567587  0.63498354  0.74203705  1
  O  O33  1  0.48855588  0.80902834  0.76511897  1
  O  O34  1  0.40636370  0.46228346  0.76832740  1
  H  H35  1  0.40970002  0.51496777  0.80256867  1
