# generated using pymatgen
data_Cu4Mo12H3S16N
_symmetry_space_group_name_H-M   'P 1'
_cell_length_a   6.46503600
_cell_length_b   6.38873881
_cell_length_c   27.95633100
_cell_angle_alpha   92.75453660
_cell_angle_beta   96.62629410
_cell_angle_gamma   95.95021841
_symmetry_Int_Tables_number   1
_chemical_formula_structural   Cu4Mo12H3S16N
_chemical_formula_sum   'Cu4 Mo12 H3 S16 N1'
_cell_volume   1138.69222190
_cell_formula_units_Z   1
loop_
 _symmetry_equiv_pos_site_id
 _symmetry_equiv_pos_as_xyz
  1  'x, y, z'
loop_
 _atom_site_type_symbol
 _atom_site_label
 _atom_site_symmetry_multiplicity
 _atom_site_fract_x
 _atom_site_fract_y
 _atom_site_fract_z
 _atom_site_occupancy
  Cu  Cu0  1  0.94321725  0.16033892  0.46069273  1
  Cu  Cu1  1  0.91065017  0.09784829  0.66335711  1
  Cu  Cu2  1  0.05968000  0.84039500  0.27086500  1
  Cu  Cu3  1  0.06052581  0.83805766  0.50327533  1
  Mo  Mo4  1  0.21521500  0.54428600  0.34262100  1
  Mo  Mo5  1  0.21757136  0.53466956  0.57680707  1
  Mo  Mo6  1  0.78697499  0.45615034  0.38881683  1
  Mo  Mo7  1  0.78858135  0.44205392  0.61897674  1
  Mo  Mo8  1  0.40694889  0.21763967  0.37506824  1
  Mo  Mo9  1  0.41381385  0.20703668  0.60777014  1
  Mo  Mo10  1  0.59495600  0.78352200  0.35564700  1
  Mo  Mo11  1  0.59598053  0.77330811  0.58871313  1
  Mo  Mo12  1  0.53596300  0.40601700  0.30007200  1
  Mo  Mo13  1  0.53644430  0.40159637  0.53086077  1
  Mo  Mo14  1  0.46570777  0.59463785  0.43242182  1
  Mo  Mo15  1  0.47886346  0.57384668  0.66396632  1
  S  S16  1  0.14404834  0.37020149  0.41689433  1
  S  S17  1  0.14775807  0.36155138  0.65055202  1
  S  S18  1  0.85836300  0.62855700  0.31503700  1
  S  S19  1  0.86088349  0.62491976  0.54672438  1
  S  S20  1  0.72038700  0.13919400  0.33837300  1
  S  S21  1  0.72149748  0.12818518  0.56722719  1
  S  S22  1  0.28014288  0.86072997  0.39349248  1
  S  S23  1  0.29323705  0.85053246  0.62979648  1
  S  S24  1  0.38464800  0.73460900  0.27877900  1
  S  S25  1  0.38373075  0.72891458  0.51185349  1
  S  S26  1  0.61709528  0.26469895  0.45223861  1
  S  S27  1  0.62916501  0.25590880  0.68557740  1
  S  S28  1  0.19156400  0.20303200  0.29614100  1
  S  S29  1  0.19280808  0.19913254  0.52811609  1
  S  S30  1  0.81090451  0.79681275  0.43575411  1
  S  S31  1  0.82228478  0.76444704  0.66990003  1
  N  N32  1  0.46139661  0.63843506  0.74312125  1
  H  H33  1  0.60823423  0.67913858  0.76174365  1
  H  H34  1  0.37131980  0.75522158  0.75152796  1
  H  H35  1  0.40048079  0.50397343  0.75785511  1
