# generated using pymatgen
data_Cu4Mo12HS16
_symmetry_space_group_name_H-M   'P 1'
_cell_length_a   6.46503600
_cell_length_b   6.38873881
_cell_length_c   27.95633100
_cell_angle_alpha   92.75453660
_cell_angle_beta   96.62629410
_cell_angle_gamma   95.95021841
_symmetry_Int_Tables_number   1
_chemical_formula_structural   Cu4Mo12HS16
_chemical_formula_sum   'Cu4 Mo12 H1 S16'
_cell_volume   1138.69222190
_cell_formula_units_Z   1
loop_
 _symmetry_equiv_pos_site_id
 _symmetry_equiv_pos_as_xyz
  1  'x, y, z'
loop_
 _atom_site_type_symbol
 _atom_site_label
 _atom_site_symmetry_multiplicity
 _atom_site_fract_x
 _atom_site_fract_y
 _atom_site_fract_z
 _atom_site_occupancy
  Cu  Cu0  1  0.93798099  0.16018978  0.46082859  1
  Cu  Cu1  1  0.97225868  0.03391299  0.63045904  1
  Cu  Cu2  1  0.05968000  0.84039500  0.27086500  1
  Cu  Cu3  1  0.05364439  0.84138468  0.50307099  1
  Mo  Mo4  1  0.21521500  0.54428600  0.34262100  1
  Mo  Mo5  1  0.21035852  0.53916021  0.57599954  1
  Mo  Mo6  1  0.78066491  0.45575722  0.38862940  1
  Mo  Mo7  1  0.77094056  0.45019253  0.62047612  1
  Mo  Mo8  1  0.40519416  0.21760613  0.37518007  1
  Mo  Mo9  1  0.40176271  0.21806041  0.60843360  1
  Mo  Mo10  1  0.59495600  0.78352200  0.35564700  1
  Mo  Mo11  1  0.58509029  0.77631144  0.58701401  1
  Mo  Mo12  1  0.53596300  0.40601700  0.30007200  1
  Mo  Mo13  1  0.52971653  0.40577493  0.53143621  1
  Mo  Mo14  1  0.46140452  0.59323052  0.43176092  1
  Mo  Mo15  1  0.45764628  0.58108621  0.66019775  1
  S  S16  1  0.13948204  0.36819505  0.41662540  1
  S  S17  1  0.12772720  0.36922022  0.65233904  1
  S  S18  1  0.85836300  0.62855700  0.31503700  1
  S  S19  1  0.85288587  0.62912017  0.54667221  1
  S  S20  1  0.72038700  0.13919400  0.33837300  1
  S  S21  1  0.71134434  0.13155237  0.56839935  1
  S  S22  1  0.27759604  0.86061029  0.39336252  1
  S  S23  1  0.27416039  0.85832453  0.62780474  1
  S  S24  1  0.38464800  0.73460900  0.27877900  1
  S  S25  1  0.37494913  0.73063364  0.51041730  1
  S  S26  1  0.61343958  0.26511637  0.45258197  1
  S  S27  1  0.62113840  0.27667016  0.68680356  1
  S  S28  1  0.19156400  0.20303200  0.29614100  1
  S  S29  1  0.18768055  0.20155074  0.52841196  1
  S  S30  1  0.80562423  0.79734860  0.43547013  1
  S  S31  1  0.80098238  0.78115764  0.67017064  1
  H  H32  1  0.61199915  0.25185703  0.81646114  1
