# generated using pymatgen
data_Fe2Mo6S8N
_symmetry_space_group_name_H-M   'P 1'
_cell_length_a   6.48394610
_cell_length_b   6.41202525
_cell_length_c   27.90841600
_cell_angle_alpha   93.69337570
_cell_angle_beta   94.75362703
_cell_angle_gamma   97.43854579
_symmetry_Int_Tables_number   1
_chemical_formula_structural   Fe2Mo6S8N
_chemical_formula_sum   'Fe4 Mo12 S16 N2'
_cell_volume   1143.25638445
_cell_formula_units_Z   2
loop_
 _symmetry_equiv_pos_site_id
 _symmetry_equiv_pos_as_xyz
  1  'x, y, z'
loop_
 _atom_site_type_symbol
 _atom_site_label
 _atom_site_symmetry_multiplicity
 _atom_site_fract_x
 _atom_site_fract_y
 _atom_site_fract_z
 _atom_site_occupancy
  Fe  Fe0  1  0.93431806  0.15240107  0.46622020  1
  Fe  Fe1  1  0.86345032  0.10014429  0.65595416  1
  Fe  Fe2  1  0.06524100  0.84263700  0.26375600  1
  Fe  Fe3  1  0.05965242  0.83631902  0.49693898  1
  Mo  Mo4  1  0.22169414  0.53779172  0.34403612  1
  Mo  Mo5  1  0.20912960  0.53235307  0.57708896  1
  Mo  Mo6  1  0.77881854  0.45969771  0.38766833  1
  Mo  Mo7  1  0.76916692  0.44919167  0.61887841  1
  Mo  Mo8  1  0.40683366  0.21730225  0.37513551  1
  Mo  Mo9  1  0.39551023  0.20845986  0.60806372  1
  Mo  Mo10  1  0.59229187  0.78189816  0.35599303  1
  Mo  Mo11  1  0.58205314  0.77005607  0.58876744  1
  Mo  Mo12  1  0.54135300  0.40905600  0.30082200  1
  Mo  Mo13  1  0.53180016  0.40240475  0.53275134  1
  Mo  Mo14  1  0.45562166  0.58972385  0.43130507  1
  Mo  Mo15  1  0.45078995  0.57581868  0.66369551  1
  S  S16  1  0.13023133  0.35852313  0.41756091  1
  S  S17  1  0.12261088  0.35679430  0.65012997  1
  S  S18  1  0.86842500  0.63937200  0.31349000  1
  S  S19  1  0.85937953  0.63491893  0.54627759  1
  S  S20  1  0.72301900  0.14241800  0.33608800  1
  S  S21  1  0.71057843  0.12673306  0.56609504  1
  S  S22  1  0.27618783  0.85653738  0.39538432  1
  S  S23  1  0.27225112  0.84876886  0.63015629  1
  S  S24  1  0.38478400  0.73178900  0.28021200  1
  S  S25  1  0.37550113  0.72383531  0.51289284  1
  S  S26  1  0.61393276  0.26697427  0.45144673  1
  S  S27  1  0.60593819  0.26448049  0.68614204  1
  S  S28  1  0.20162900  0.19284800  0.29629700  1
  S  S29  1  0.19049905  0.18872377  0.52846248  1
  S  S30  1  0.79600534  0.80460937  0.43603402  1
  S  S31  1  0.79944867  0.76688762  0.67113513  1
  N  N32  1  0.42924441  0.63625029  0.74012560  1
  N  N33  1  0.43092982  0.64275660  0.78022245  1
