# generated using pymatgen
data_Cu4Mo12HCS16O
_symmetry_space_group_name_H-M   'P 1'
_cell_length_a   6.46503600
_cell_length_b   6.38873881
_cell_length_c   27.95633100
_cell_angle_alpha   92.75453660
_cell_angle_beta   96.62629410
_cell_angle_gamma   95.95021841
_symmetry_Int_Tables_number   1
_chemical_formula_structural   Cu4Mo12HCS16O
_chemical_formula_sum   'Cu4 Mo12 H1 C1 S16 O1'
_cell_volume   1138.69222190
_cell_formula_units_Z   1
loop_
 _symmetry_equiv_pos_site_id
 _symmetry_equiv_pos_as_xyz
  1  'x, y, z'
loop_
 _atom_site_type_symbol
 _atom_site_label
 _atom_site_symmetry_multiplicity
 _atom_site_fract_x
 _atom_site_fract_y
 _atom_site_fract_z
 _atom_site_occupancy
  Cu  Cu0  1  0.94044547  0.15915661  0.46071922  1
  Cu  Cu1  1  0.97884329  0.03257080  0.63080386  1
  Cu  Cu2  1  0.05968000  0.84039500  0.27086500  1
  Cu  Cu3  1  0.05536330  0.83905673  0.50309768  1
  Mo  Mo4  1  0.21521500  0.54428600  0.34262100  1
  Mo  Mo5  1  0.21371447  0.53389211  0.57652861  1
  Mo  Mo6  1  0.78435554  0.45571991  0.38876313  1
  Mo  Mo7  1  0.77787998  0.44730777  0.62041607  1
  Mo  Mo8  1  0.40664456  0.21762790  0.37509554  1
  Mo  Mo9  1  0.40191756  0.21070115  0.60854097  1
  Mo  Mo10  1  0.59495600  0.78352200  0.35564700  1
  Mo  Mo11  1  0.58822346  0.76996764  0.58737450  1
  Mo  Mo12  1  0.53596300  0.40601700  0.30007200  1
  Mo  Mo13  1  0.53287380  0.40060243  0.53202235  1
  Mo  Mo14  1  0.46367642  0.59368684  0.43205184  1
  Mo  Mo15  1  0.46068990  0.58306998  0.66134679  1
  S  S16  1  0.14205524  0.36843548  0.41682784  1
  S  S17  1  0.13193381  0.36786247  0.65257822  1
  S  S18  1  0.85836300  0.62855700  0.31503700  1
  S  S19  1  0.85606395  0.62448570  0.54658415  1
  S  S20  1  0.72038700  0.13919400  0.33837300  1
  S  S21  1  0.71339791  0.12572866  0.56850801  1
  S  S22  1  0.27895892  0.86075513  0.39341264  1
  S  S23  1  0.27517450  0.85222070  0.62781126  1
  S  S24  1  0.38464800  0.73460900  0.27877900  1
  S  S25  1  0.37670041  0.72580807  0.51077589  1
  S  S26  1  0.61578952  0.26485309  0.45253169  1
  S  S27  1  0.62569409  0.26979108  0.68377972  1
  S  S28  1  0.19156400  0.20303200  0.29614100  1
  S  S29  1  0.19058179  0.19738826  0.52860813  1
  S  S30  1  0.80826037  0.79700114  0.43555359  1
  S  S31  1  0.80518940  0.77831987  0.66931043  1
  C  C32  1  0.68753074  0.12558857  0.73719379  1
  H  H33  1  0.91989899  0.10843911  0.78403300  1
  O  O34  1  0.88161070  0.18663372  0.75489055  1
