# generated using pymatgen
data_Cu4Mo12H3S16N
_symmetry_space_group_name_H-M   'P 1'
_cell_length_a   6.46503600
_cell_length_b   6.38873881
_cell_length_c   27.95633100
_cell_angle_alpha   92.75453660
_cell_angle_beta   96.62629410
_cell_angle_gamma   95.95021841
_symmetry_Int_Tables_number   1
_chemical_formula_structural   Cu4Mo12H3S16N
_chemical_formula_sum   'Cu4 Mo12 H3 S16 N1'
_cell_volume   1138.69222190
_cell_formula_units_Z   1
loop_
 _symmetry_equiv_pos_site_id
 _symmetry_equiv_pos_as_xyz
  1  'x, y, z'
loop_
 _atom_site_type_symbol
 _atom_site_label
 _atom_site_symmetry_multiplicity
 _atom_site_fract_x
 _atom_site_fract_y
 _atom_site_fract_z
 _atom_site_occupancy
  Cu  Cu0  1  0.93712517  0.16175954  0.46055889  1
  Cu  Cu1  1  0.91725268  0.15187734  0.69030148  1
  Cu  Cu2  1  0.05968000  0.84039500  0.27086500  1
  Cu  Cu3  1  0.04742381  0.83752547  0.50352357  1
  Mo  Mo4  1  0.21521500  0.54428600  0.34262100  1
  Mo  Mo5  1  0.20002867  0.54241937  0.57565380  1
  Mo  Mo6  1  0.78347215  0.45613080  0.38889827  1
  Mo  Mo7  1  0.77124618  0.44977299  0.62051132  1
  Mo  Mo8  1  0.40532179  0.21724799  0.37507816  1
  Mo  Mo9  1  0.39476747  0.21783683  0.60805457  1
  Mo  Mo10  1  0.59495600  0.78352200  0.35564700  1
  Mo  Mo11  1  0.57827305  0.78077418  0.58734122  1
  Mo  Mo12  1  0.53596300  0.40601700  0.30007200  1
  Mo  Mo13  1  0.52350587  0.40365887  0.53087620  1
  Mo  Mo14  1  0.46125745  0.59348297  0.43226816  1
  Mo  Mo15  1  0.45899354  0.59090956  0.66100543  1
  S  S16  1  0.14044335  0.36794494  0.41654542  1
  S  S17  1  0.13101043  0.37090786  0.65130941  1
  S  S18  1  0.85836300  0.62855700  0.31503700  1
  S  S19  1  0.84431576  0.62886522  0.54705023  1
  S  S20  1  0.72038700  0.13919400  0.33837300  1
  S  S21  1  0.70663411  0.13579219  0.56961958  1
  S  S22  1  0.27873347  0.86079010  0.39317743  1
  S  S23  1  0.26757496  0.86163335  0.62763212  1
  S  S24  1  0.38464800  0.73460900  0.27877900  1
  S  S25  1  0.36933093  0.73076933  0.51046140  1
  S  S26  1  0.61222997  0.26557672  0.45276632  1
  S  S27  1  0.60058355  0.27668866  0.68635023  1
  S  S28  1  0.19156400  0.20303200  0.29614100  1
  S  S29  1  0.17903896  0.20174500  0.52842853  1
  S  S30  1  0.80558860  0.79703654  0.43583374  1
  S  S31  1  0.79605703  0.79697704  0.66555449  1
  N  N32  1  0.99354547  0.13594008  0.76278848  1
  H  H33  1  0.14851419  0.16435891  0.77675008  1
  H  H34  1  0.91581723  0.24268538  0.78064189  1
  H  H35  1  0.93995284  0.98967570  0.77326580  1
