# generated using pymatgen
data_Mo12HS24
_symmetry_space_group_name_H-M   'P 1'
_cell_length_a   6.31973600
_cell_length_b   12.46268000
_cell_length_c   24.68128287
_cell_angle_alpha   90.00000000
_cell_angle_beta   93.66151225
_cell_angle_gamma   90.00000000
_symmetry_Int_Tables_number   1
_chemical_formula_structural   Mo12HS24
_chemical_formula_sum   'Mo12 H1 S24'
_cell_volume   1939.95071504
_cell_formula_units_Z   1
loop_
 _symmetry_equiv_pos_site_id
 _symmetry_equiv_pos_as_xyz
  1  'x, y, z'
loop_
 _atom_site_type_symbol
 _atom_site_label
 _atom_site_symmetry_multiplicity
 _atom_site_fract_x
 _atom_site_fract_y
 _atom_site_fract_z
 _atom_site_occupancy
  Mo  Mo0  1  0.34212400  0.25000000  0.37044000  1
  Mo  Mo1  1  0.84212400  0.25000000  0.37044000  1
  Mo  Mo2  1  0.10232000  0.75000000  0.40733800  1
  Mo  Mo3  1  0.60232000  0.75000000  0.40733800  1
  Mo  Mo4  1  0.11993660  0.24999377  0.48174467  1
  Mo  Mo5  1  0.61993545  0.24999347  0.48174060  1
  Mo  Mo6  1  0.37936525  0.74999911  0.52030070  1
  Mo  Mo7  1  0.88197026  0.74999931  0.52028688  1
  Mo  Mo8  1  0.39854668  0.24998789  0.59541637  1
  Mo  Mo9  1  0.89840928  0.24998982  0.59541584  1
  Mo  Mo10  1  0.15747332  0.74998202  0.62742310  1
  Mo  Mo11  1  0.65775632  0.74998076  0.62853934  1
  S  S12  1  0.10138600  0.37552900  0.40747300  1
  S  S13  1  0.60138600  0.37552900  0.40747300  1
  S  S14  1  0.34305100  0.87552500  0.37029900  1
  S  S15  1  0.84305100  0.87552500  0.37029900  1
  S  S16  1  0.10138600  0.12447100  0.40747300  1
  S  S17  1  0.60138600  0.12447100  0.40747300  1
  S  S18  1  0.34305100  0.62447500  0.37029900  1
  S  S19  1  0.84305100  0.62447500  0.37029900  1
  S  S20  1  0.37950941  0.37417032  0.51993124  1
  S  S21  1  0.87946519  0.37417167  0.51993022  1
  S  S22  1  0.12119343  0.87475002  0.48239799  1
  S  S23  1  0.62122352  0.87362396  0.48259458  1
  S  S24  1  0.37950864  0.12581376  0.51992958  1
  S  S25  1  0.87946569  0.12581349  0.51992947  1
  S  S26  1  0.12119245  0.62524902  0.48239711  1
  S  S27  1  0.62122322  0.62637527  0.48259307  1
  S  S28  1  0.15793621  0.37359831  0.63322957  1
  S  S29  1  0.65795851  0.37358456  0.63331384  1
  S  S30  1  0.40086940  0.87645481  0.59598911  1
  S  S31  1  0.89827028  0.87644744  0.59597808  1
  S  S32  1  0.15793612  0.12637614  0.63323230  1
  S  S33  1  0.65795876  0.12638892  0.63331554  1
  S  S34  1  0.40086782  0.62351742  0.59598055  1
  S  S35  1  0.89826698  0.62352487  0.59596929  1
  H  H36  1  0.67548060  0.74999549  0.69989548  1
