# generated using pymatgen
data_Cu4Mo12HCS16O
_symmetry_space_group_name_H-M   'P 1'
_cell_length_a   6.46503600
_cell_length_b   6.38873881
_cell_length_c   27.95633100
_cell_angle_alpha   92.75453660
_cell_angle_beta   96.62629410
_cell_angle_gamma   95.95021841
_symmetry_Int_Tables_number   1
_chemical_formula_structural   Cu4Mo12HCS16O
_chemical_formula_sum   'Cu4 Mo12 H1 C1 S16 O1'
_cell_volume   1138.69222190
_cell_formula_units_Z   1
loop_
 _symmetry_equiv_pos_site_id
 _symmetry_equiv_pos_as_xyz
  1  'x, y, z'
loop_
 _atom_site_type_symbol
 _atom_site_label
 _atom_site_symmetry_multiplicity
 _atom_site_fract_x
 _atom_site_fract_y
 _atom_site_fract_z
 _atom_site_occupancy
  Cu  Cu0  1  0.93710952  0.15510476  0.46043399  1
  Cu  Cu1  1  0.96999609  0.02295210  0.62962123  1
  Cu  Cu2  1  0.05968000  0.84039500  0.27086500  1
  Cu  Cu3  1  0.05042009  0.83469380  0.50310543  1
  Mo  Mo4  1  0.21521500  0.54428600  0.34262100  1
  Mo  Mo5  1  0.20973340  0.52677419  0.57650561  1
  Mo  Mo6  1  0.77964272  0.45515072  0.38869550  1
  Mo  Mo7  1  0.77301879  0.43939006  0.62006701  1
  Mo  Mo8  1  0.40498355  0.21659190  0.37505658  1
  Mo  Mo9  1  0.39652914  0.20272064  0.60823637  1
  Mo  Mo10  1  0.59495600  0.78352200  0.35564700  1
  Mo  Mo11  1  0.58334002  0.76231704  0.58729968  1
  Mo  Mo12  1  0.53596300  0.40601700  0.30007200  1
  Mo  Mo13  1  0.52783648  0.39435504  0.53222185  1
  Mo  Mo14  1  0.46028449  0.59100438  0.43178055  1
  Mo  Mo15  1  0.45434389  0.57325351  0.66075507  1
  S  S16  1  0.13833572  0.36598689  0.41658913  1
  S  S17  1  0.12649650  0.35733745  0.65238382  1
  S  S18  1  0.85836300  0.62855700  0.31503700  1
  S  S19  1  0.85141305  0.61806437  0.54636791  1
  S  S20  1  0.72038700  0.13919400  0.33837300  1
  S  S21  1  0.70781231  0.11770762  0.56785216  1
  S  S22  1  0.27779471  0.85980114  0.39362319  1
  S  S23  1  0.26946274  0.84448767  0.62804134  1
  S  S24  1  0.38464800  0.73460900  0.27877900  1
  S  S25  1  0.37096709  0.71946467  0.51084398  1
  S  S26  1  0.61315432  0.26273905  0.45245056  1
  S  S27  1  0.62578427  0.26132023  0.68290519  1
  S  S28  1  0.19156400  0.20303200  0.29614100  1
  S  S29  1  0.18584711  0.19062663  0.52858120  1
  S  S30  1  0.80381286  0.79567211  0.43568058  1
  S  S31  1  0.79945593  0.77009228  0.66944539  1
  C  C32  1  0.69160684  0.13730630  0.73711552  1
  H  H33  1  0.93175433  0.11877505  0.78221477  1
  O  O34  1  0.89317973  0.18982482  0.75209616  1
