# generated using pymatgen
data_Cu4Mo12HCS16O
_symmetry_space_group_name_H-M   'P 1'
_cell_length_a   6.46503600
_cell_length_b   6.38873881
_cell_length_c   27.95633100
_cell_angle_alpha   92.75453660
_cell_angle_beta   96.62629410
_cell_angle_gamma   95.95021841
_symmetry_Int_Tables_number   1
_chemical_formula_structural   Cu4Mo12HCS16O
_chemical_formula_sum   'Cu4 Mo12 H1 C1 S16 O1'
_cell_volume   1138.69222190
_cell_formula_units_Z   1
loop_
 _symmetry_equiv_pos_site_id
 _symmetry_equiv_pos_as_xyz
  1  'x, y, z'
loop_
 _atom_site_type_symbol
 _atom_site_label
 _atom_site_symmetry_multiplicity
 _atom_site_fract_x
 _atom_site_fract_y
 _atom_site_fract_z
 _atom_site_occupancy
  Cu  Cu0  1  0.94202856  0.15803419  0.46128769  1
  Cu  Cu1  1  0.91354244  0.10280522  0.66213375  1
  Cu  Cu2  1  0.05968000  0.84039500  0.27086500  1
  Cu  Cu3  1  0.06021988  0.83679506  0.50328794  1
  Mo  Mo4  1  0.21521500  0.54428600  0.34262100  1
  Mo  Mo5  1  0.21451872  0.53818858  0.57659080  1
  Mo  Mo6  1  0.78261876  0.45602277  0.38885067  1
  Mo  Mo7  1  0.79278318  0.44639147  0.61937378  1
  Mo  Mo8  1  0.40549488  0.21746496  0.37528147  1
  Mo  Mo9  1  0.41441684  0.20912860  0.60854623  1
  Mo  Mo10  1  0.59495600  0.78352200  0.35564700  1
  Mo  Mo11  1  0.59965392  0.77641192  0.58876960  1
  Mo  Mo12  1  0.53596300  0.40601700  0.30007200  1
  Mo  Mo13  1  0.53552945  0.40197588  0.53169029  1
  Mo  Mo14  1  0.46298060  0.59336396  0.43241202  1
  Mo  Mo15  1  0.48512039  0.58230866  0.66553332  1
  S  S16  1  0.14101471  0.36859469  0.41702905  1
  S  S17  1  0.15223571  0.36901601  0.65134597  1
  S  S18  1  0.85836300  0.62855700  0.31503700  1
  S  S19  1  0.86106110  0.62173632  0.54656652  1
  S  S20  1  0.72038700  0.13919400  0.33837300  1
  S  S21  1  0.72154434  0.13029386  0.56790130  1
  S  S22  1  0.27924704  0.86014987  0.39357823  1
  S  S23  1  0.29650315  0.85254341  0.62978675  1
  S  S24  1  0.38464800  0.73460900  0.27877900  1
  S  S25  1  0.38402378  0.73053325  0.51229210  1
  S  S26  1  0.61536558  0.26417736  0.45262597  1
  S  S27  1  0.63168758  0.25941610  0.68581265  1
  S  S28  1  0.19156400  0.20303200  0.29614100  1
  S  S29  1  0.19118671  0.19982899  0.52916523  1
  S  S30  1  0.80784715  0.79595128  0.43613490  1
  S  S31  1  0.82875669  0.77056354  0.66929715  1
  C  C32  1  0.50992056  0.63619133  0.74246648  1
  H  H33  1  0.35700065  0.57278016  0.75529356  1
  O  O34  1  0.65225977  0.70749928  0.77401323  1
