# generated using pymatgen
data_Fe4Mo12H(S8N)2
_symmetry_space_group_name_H-M   'P 1'
_cell_length_a   6.48394610
_cell_length_b   6.41202525
_cell_length_c   27.90841600
_cell_angle_alpha   93.69337570
_cell_angle_beta   94.75362703
_cell_angle_gamma   97.43854579
_symmetry_Int_Tables_number   1
_chemical_formula_structural   Fe4Mo12H(S8N)2
_chemical_formula_sum   'Fe4 Mo12 H1 S16 N2'
_cell_volume   1143.25638445
_cell_formula_units_Z   1
loop_
 _symmetry_equiv_pos_site_id
 _symmetry_equiv_pos_as_xyz
  1  'x, y, z'
loop_
 _atom_site_type_symbol
 _atom_site_label
 _atom_site_symmetry_multiplicity
 _atom_site_fract_x
 _atom_site_fract_y
 _atom_site_fract_z
 _atom_site_occupancy
  Fe  Fe0  1  0.93218688  0.15680484  0.46180105  1
  Fe  Fe1  1  0.86174288  0.09897193  0.65514222  1
  Fe  Fe2  1  0.06524100  0.84263700  0.26375600  1
  Fe  Fe3  1  0.06166362  0.83248159  0.50193744  1
  Mo  Mo4  1  0.22177551  0.54019203  0.34379332  1
  Mo  Mo5  1  0.20101907  0.52969408  0.57589484  1
  Mo  Mo6  1  0.78622637  0.46021241  0.38776254  1
  Mo  Mo7  1  0.76741518  0.44751435  0.61880102  1
  Mo  Mo8  1  0.41020856  0.21933172  0.37512951  1
  Mo  Mo9  1  0.39170982  0.20869077  0.60775529  1
  Mo  Mo10  1  0.59525257  0.78122223  0.35602218  1
  Mo  Mo11  1  0.57727376  0.76866260  0.58857925  1
  Mo  Mo12  1  0.54135300  0.40905600  0.30082200  1
  Mo  Mo13  1  0.52852847  0.39891605  0.53171993  1
  Mo  Mo14  1  0.45983690  0.59401752  0.43187619  1
  Mo  Mo15  1  0.44576392  0.58194221  0.66680326  1
  S  S16  1  0.13562604  0.36048209  0.41689493  1
  S  S17  1  0.12123959  0.35622526  0.64990809  1
  S  S18  1  0.86842500  0.63937200  0.31349000  1
  S  S19  1  0.85350517  0.63148379  0.54651438  1
  S  S20  1  0.72301900  0.14241800  0.33608800  1
  S  S21  1  0.70383708  0.12407408  0.56548362  1
  S  S22  1  0.28075467  0.85892696  0.39521151  1
  S  S23  1  0.26694475  0.84578625  0.62924503  1
  S  S24  1  0.38478400  0.73178900  0.28021200  1
  S  S25  1  0.37387344  0.72145811  0.51226231  1
  S  S26  1  0.61855906  0.27133669  0.45130847  1
  S  S27  1  0.60309785  0.25666731  0.68483595  1
  S  S28  1  0.20162900  0.19284800  0.29629700  1
  S  S29  1  0.18527550  0.18472440  0.52612078  1
  S  S30  1  0.80574514  0.80624776  0.43757949  1
  S  S31  1  0.79838673  0.76674028  0.67065352  1
  N  N32  1  0.44693369  0.63476446  0.73534222  1
  N  N33  1  0.45624550  0.65453721  0.77867133  1
  H  H34  1  0.56749203  0.57721240  0.79752791  1
