# generated using pymatgen
data_Fe2Mo6S8N
_symmetry_space_group_name_H-M   'P 1'
_cell_length_a   6.48394610
_cell_length_b   6.41202525
_cell_length_c   27.90841600
_cell_angle_alpha   93.69337570
_cell_angle_beta   94.75362703
_cell_angle_gamma   97.43854579
_symmetry_Int_Tables_number   1
_chemical_formula_structural   Fe2Mo6S8N
_chemical_formula_sum   'Fe4 Mo12 S16 N2'
_cell_volume   1143.25638445
_cell_formula_units_Z   2
loop_
 _symmetry_equiv_pos_site_id
 _symmetry_equiv_pos_as_xyz
  1  'x, y, z'
loop_
 _atom_site_type_symbol
 _atom_site_label
 _atom_site_symmetry_multiplicity
 _atom_site_fract_x
 _atom_site_fract_y
 _atom_site_fract_z
 _atom_site_occupancy
  Fe  Fe0  1  0.91937363  0.15152791  0.45678466  1
  Fe  Fe1  1  0.85074135  0.11707451  0.68025372  1
  Fe  Fe2  1  0.06524100  0.84263700  0.26375600  1
  Fe  Fe3  1  0.03668916  0.83196584  0.50506381  1
  Mo  Mo4  1  0.22097085  0.53904943  0.34316422  1
  Mo  Mo5  1  0.16869837  0.52233748  0.57436129  1
  Mo  Mo6  1  0.78122221  0.46064843  0.38740347  1
  Mo  Mo7  1  0.73060815  0.43456230  0.61743196  1
  Mo  Mo8  1  0.40686392  0.21815968  0.37470309  1
  Mo  Mo9  1  0.35672455  0.19995872  0.60541745  1
  Mo  Mo10  1  0.59312406  0.78145705  0.35585630  1
  Mo  Mo11  1  0.54578430  0.76160903  0.58668161  1
  Mo  Mo12  1  0.54135300  0.40905600  0.30082200  1
  Mo  Mo13  1  0.50015308  0.39023093  0.52949327  1
  Mo  Mo14  1  0.45122324  0.59167065  0.43156768  1
  Mo  Mo15  1  0.41051836  0.56801404  0.65907014  1
  S  S16  1  0.12966020  0.35997430  0.41535615  1
  S  S17  1  0.08373982  0.34632642  0.64816901  1
  S  S18  1  0.86842500  0.63937200  0.31349000  1
  S  S19  1  0.82258034  0.62349695  0.54615238  1
  S  S20  1  0.72301900  0.14241800  0.33608800  1
  S  S21  1  0.67196652  0.11989338  0.56558878  1
  S  S22  1  0.27800704  0.85790590  0.39440033  1
  S  S23  1  0.23212011  0.84062941  0.62771245  1
  S  S24  1  0.38478400  0.73178900  0.28021200  1
  S  S25  1  0.34415423  0.71248612  0.51009620  1
  S  S26  1  0.60951390  0.27007049  0.45117986  1
  S  S27  1  0.55420412  0.25943512  0.68342114  1
  S  S28  1  0.20162900  0.19284800  0.29629700  1
  S  S29  1  0.15272651  0.18573003  0.52354360  1
  S  S30  1  0.79914531  0.79864152  0.43788944  1
  S  S31  1  0.75365226  0.76761059  0.66591722  1
  N  N32  1  0.93017649  0.12855096  0.74611422  1
  N  N33  1  0.94042460  0.12219363  0.78662795  1
