# generated using pymatgen
data_Cu4Mo12HC(S8O)2
_symmetry_space_group_name_H-M   'P 1'
_cell_length_a   6.46503600
_cell_length_b   6.38873881
_cell_length_c   27.95633100
_cell_angle_alpha   92.75453660
_cell_angle_beta   96.62629410
_cell_angle_gamma   95.95021841
_symmetry_Int_Tables_number   1
_chemical_formula_structural   Cu4Mo12HC(S8O)2
_chemical_formula_sum   'Cu4 Mo12 H1 C1 S16 O2'
_cell_volume   1138.69222190
_cell_formula_units_Z   1
loop_
 _symmetry_equiv_pos_site_id
 _symmetry_equiv_pos_as_xyz
  1  'x, y, z'
loop_
 _atom_site_type_symbol
 _atom_site_label
 _atom_site_symmetry_multiplicity
 _atom_site_fract_x
 _atom_site_fract_y
 _atom_site_fract_z
 _atom_site_occupancy
  Cu  Cu0  1  0.93982853  0.16105139  0.46092137  1
  Cu  Cu1  1  0.92561955  0.15928224  0.69315263  1
  Cu  Cu2  1  0.05968000  0.84039500  0.27086500  1
  Cu  Cu3  1  0.05092742  0.83749471  0.50357416  1
  Mo  Mo4  1  0.21521500  0.54428600  0.34262100  1
  Mo  Mo5  1  0.20436120  0.54249915  0.57592500  1
  Mo  Mo6  1  0.78359994  0.45606716  0.38893164  1
  Mo  Mo7  1  0.77938451  0.45096859  0.62092530  1
  Mo  Mo8  1  0.40562787  0.21727748  0.37516992  1
  Mo  Mo9  1  0.40242699  0.21842492  0.60861114  1
  Mo  Mo10  1  0.59495600  0.78352200  0.35564700  1
  Mo  Mo11  1  0.58331841  0.78034467  0.58781301  1
  Mo  Mo12  1  0.53596300  0.40601700  0.30007200  1
  Mo  Mo13  1  0.52848042  0.40261849  0.53126630  1
  Mo  Mo14  1  0.46200812  0.59318271  0.43232272  1
  Mo  Mo15  1  0.46533639  0.59260295  0.66169801  1
  S  S16  1  0.14091587  0.36809657  0.41666320  1
  S  S17  1  0.13762367  0.37185503  0.65149257  1
  S  S18  1  0.85836300  0.62855700  0.31503700  1
  S  S19  1  0.84892404  0.62792998  0.54725016  1
  S  S20  1  0.72038700  0.13919400  0.33837300  1
  S  S21  1  0.71329315  0.13592177  0.57013038  1
  S  S22  1  0.27920737  0.86060379  0.39330720  1
  S  S23  1  0.27247232  0.86205057  0.62788074  1
  S  S24  1  0.38464800  0.73460900  0.27877900  1
  S  S25  1  0.37320028  0.72978890  0.51088462  1
  S  S26  1  0.61399688  0.26518008  0.45280547  1
  S  S27  1  0.61012779  0.27938330  0.68718523  1
  S  S28  1  0.19156400  0.20303200  0.29614100  1
  S  S29  1  0.18399866  0.20146593  0.52885709  1
  S  S30  1  0.80667079  0.79653896  0.43597832  1
  S  S31  1  0.80109821  0.79884582  0.66576112  1
  C  C32  1  0.96939053  0.12946444  0.79751824  1
  O  O33  1  0.93801912  0.99761898  0.82841621  1
  O  O34  1  0.05036544  0.09132939  0.75863759  1
  H  H35  1  0.92780078  0.29287379  0.80444144  1
