# generated using pymatgen
data_Cu4Mo12HCS16O
_symmetry_space_group_name_H-M   'P 1'
_cell_length_a   6.46503600
_cell_length_b   6.38873881
_cell_length_c   27.95633100
_cell_angle_alpha   92.75453660
_cell_angle_beta   96.62629410
_cell_angle_gamma   95.95021841
_symmetry_Int_Tables_number   1
_chemical_formula_structural   Cu4Mo12HCS16O
_chemical_formula_sum   'Cu4 Mo12 H1 C1 S16 O1'
_cell_volume   1138.69222190
_cell_formula_units_Z   1
loop_
 _symmetry_equiv_pos_site_id
 _symmetry_equiv_pos_as_xyz
  1  'x, y, z'
loop_
 _atom_site_type_symbol
 _atom_site_label
 _atom_site_symmetry_multiplicity
 _atom_site_fract_x
 _atom_site_fract_y
 _atom_site_fract_z
 _atom_site_occupancy
  Cu  Cu0  1  0.93794596  0.15328294  0.46046413  1
  Cu  Cu1  1  0.96898448  0.02337365  0.63072745  1
  Cu  Cu2  1  0.05968000  0.84039500  0.27086500  1
  Cu  Cu3  1  0.04908040  0.82496535  0.50328742  1
  Mo  Mo4  1  0.21521500  0.54428600  0.34262100  1
  Mo  Mo5  1  0.20421005  0.52249312  0.57665954  1
  Mo  Mo6  1  0.78143396  0.45517695  0.38881779  1
  Mo  Mo7  1  0.77029969  0.43324308  0.62177990  1
  Mo  Mo8  1  0.40526244  0.21627445  0.37507753  1
  Mo  Mo9  1  0.39594591  0.20094068  0.60851184  1
  Mo  Mo10  1  0.59495600  0.78352200  0.35564700  1
  Mo  Mo11  1  0.58301464  0.76227975  0.58811915  1
  Mo  Mo12  1  0.53596300  0.40601700  0.30007200  1
  Mo  Mo13  1  0.52584898  0.39265344  0.53248767  1
  Mo  Mo14  1  0.46144287  0.59073551  0.43185702  1
  Mo  Mo15  1  0.45419236  0.58273693  0.66880052  1
  S  S16  1  0.13943305  0.36572680  0.41656412  1
  S  S17  1  0.12568814  0.35796911  0.65205673  1
  S  S18  1  0.85836300  0.62855700  0.31503700  1
  S  S19  1  0.84988052  0.61343849  0.54744519  1
  S  S20  1  0.72038700  0.13919400  0.33837300  1
  S  S21  1  0.70384003  0.11450027  0.56840392  1
  S  S22  1  0.27893480  0.85964984  0.39353086  1
  S  S23  1  0.26773885  0.83996638  0.62674813  1
  S  S24  1  0.38464800  0.73460900  0.27877900  1
  S  S25  1  0.37302332  0.71847672  0.51100490  1
  S  S26  1  0.61393968  0.26262164  0.45279704  1
  S  S27  1  0.61191147  0.25527468  0.68462665  1
  S  S28  1  0.19156400  0.20303200  0.29614100  1
  S  S29  1  0.18308469  0.18820921  0.52801999  1
  S  S30  1  0.80592066  0.79460194  0.43580562  1
  S  S31  1  0.80733306  0.76209874  0.66897291  1
  C  C32  1  0.45966579  0.68324695  0.73331969  1
  H  H33  1  0.48356381  0.66523824  0.80249030  1
  O  O34  1  0.46599378  0.76394440  0.77569051  1
