# generated using pymatgen
data_Cu4Mo12HCS16O
_symmetry_space_group_name_H-M   'P 1'
_cell_length_a   6.46503600
_cell_length_b   6.38873881
_cell_length_c   27.95633100
_cell_angle_alpha   92.75453660
_cell_angle_beta   96.62629410
_cell_angle_gamma   95.95021841
_symmetry_Int_Tables_number   1
_chemical_formula_structural   Cu4Mo12HCS16O
_chemical_formula_sum   'Cu4 Mo12 H1 C1 S16 O1'
_cell_volume   1138.69222190
_cell_formula_units_Z   1
loop_
 _symmetry_equiv_pos_site_id
 _symmetry_equiv_pos_as_xyz
  1  'x, y, z'
loop_
 _atom_site_type_symbol
 _atom_site_label
 _atom_site_symmetry_multiplicity
 _atom_site_fract_x
 _atom_site_fract_y
 _atom_site_fract_z
 _atom_site_occupancy
  Cu  Cu0  1  0.93644576  0.16060195  0.46002844  1
  Cu  Cu1  1  0.91522497  0.13943082  0.68444679  1
  Cu  Cu2  1  0.05968000  0.84039500  0.27086500  1
  Cu  Cu3  1  0.04747890  0.84173067  0.50340011  1
  Mo  Mo4  1  0.21521500  0.54428600  0.34262100  1
  Mo  Mo5  1  0.20111901  0.54545788  0.57416136  1
  Mo  Mo6  1  0.78176752  0.45576130  0.38886501  1
  Mo  Mo7  1  0.77052190  0.44830407  0.61974075  1
  Mo  Mo8  1  0.40492117  0.21809585  0.37505337  1
  Mo  Mo9  1  0.39405681  0.21951515  0.60777646  1
  Mo  Mo10  1  0.59495600  0.78352200  0.35564700  1
  Mo  Mo11  1  0.57772803  0.77966648  0.58730496  1
  Mo  Mo12  1  0.53596300  0.40601700  0.30007200  1
  Mo  Mo13  1  0.52381117  0.40414731  0.53068101  1
  Mo  Mo14  1  0.45995046  0.59386388  0.43196634  1
  Mo  Mo15  1  0.45473900  0.58950946  0.66042997  1
  S  S16  1  0.13927246  0.36852339  0.41646048  1
  S  S17  1  0.13040814  0.37026673  0.65058222  1
  S  S18  1  0.85836300  0.62855700  0.31503700  1
  S  S19  1  0.84480079  0.62864522  0.54683424  1
  S  S20  1  0.72038700  0.13919400  0.33837300  1
  S  S21  1  0.70484981  0.13473484  0.56863748  1
  S  S22  1  0.27771837  0.86127052  0.39315304  1
  S  S23  1  0.26627324  0.86226201  0.62722631  1
  S  S24  1  0.38464800  0.73460900  0.27877900  1
  S  S25  1  0.36910306  0.73186203  0.51033480  1
  S  S26  1  0.61223345  0.26574851  0.45253023  1
  S  S27  1  0.60519580  0.27808107  0.68615696  1
  S  S28  1  0.19156400  0.20303200  0.29614100  1
  S  S29  1  0.17926840  0.20322398  0.52797568  1
  S  S30  1  0.80407785  0.79671452  0.43584836  1
  S  S31  1  0.79301638  0.78750896  0.66640142  1
  C  C32  1  0.04223971  0.11158195  0.74932316  1
  H  H33  1  0.91536239  0.04140411  0.77031661  1
  O  O34  1  0.21792444  0.15845596  0.76898524  1
