# generated using pymatgen
data_Cu4Mo12HS16
_symmetry_space_group_name_H-M   'P 1'
_cell_length_a   6.46503600
_cell_length_b   6.38873881
_cell_length_c   27.95633100
_cell_angle_alpha   92.75453660
_cell_angle_beta   96.62629410
_cell_angle_gamma   95.95021841
_symmetry_Int_Tables_number   1
_chemical_formula_structural   Cu4Mo12HS16
_chemical_formula_sum   'Cu4 Mo12 H1 S16'
_cell_volume   1138.69222190
_cell_formula_units_Z   1
loop_
 _symmetry_equiv_pos_site_id
 _symmetry_equiv_pos_as_xyz
  1  'x, y, z'
loop_
 _atom_site_type_symbol
 _atom_site_label
 _atom_site_symmetry_multiplicity
 _atom_site_fract_x
 _atom_site_fract_y
 _atom_site_fract_z
 _atom_site_occupancy
  Cu  Cu0  1  0.94159941  0.15700425  0.46114174  1
  Cu  Cu1  1  0.00030622  0.04438070  0.63411807  1
  Cu  Cu2  1  0.05968000  0.84039500  0.27086500  1
  Cu  Cu3  1  0.05652390  0.83074120  0.50259951  1
  Mo  Mo4  1  0.21521500  0.54428600  0.34262100  1
  Mo  Mo5  1  0.20804921  0.54332981  0.57523211  1
  Mo  Mo6  1  0.78323109  0.45554528  0.38878362  1
  Mo  Mo7  1  0.78843438  0.44859095  0.62159906  1
  Mo  Mo8  1  0.40576449  0.21655790  0.37519021  1
  Mo  Mo9  1  0.40974564  0.21326816  0.60824601  1
  Mo  Mo10  1  0.59495600  0.78352200  0.35564700  1
  Mo  Mo11  1  0.59382555  0.78004993  0.58742703  1
  Mo  Mo12  1  0.53596300  0.40601700  0.30007200  1
  Mo  Mo13  1  0.53325785  0.40398815  0.53174037  1
  Mo  Mo14  1  0.46317359  0.59235590  0.43205400  1
  Mo  Mo15  1  0.47205845  0.58580587  0.66351519  1
  S  S16  1  0.14116689  0.36767600  0.41671999  1
  S  S17  1  0.14243320  0.38377904  0.65087547  1
  S  S18  1  0.85836300  0.62855700  0.31503700  1
  S  S19  1  0.85511890  0.62582129  0.54720440  1
  S  S20  1  0.72038700  0.13919400  0.33837300  1
  S  S21  1  0.71821896  0.13275956  0.56893236  1
  S  S22  1  0.27939581  0.86019274  0.39345424  1
  S  S23  1  0.28647966  0.85736348  0.62817177  1
  S  S24  1  0.38464800  0.73460900  0.27877900  1
  S  S25  1  0.38133245  0.73174920  0.51080435  1
  S  S26  1  0.61538970  0.26459074  0.45282742  1
  S  S27  1  0.63104701  0.27504721  0.68576612  1
  S  S28  1  0.19156400  0.20303200  0.29614100  1
  S  S29  1  0.18848795  0.20300854  0.52858473  1
  S  S30  1  0.80765831  0.79609360  0.43587363  1
  S  S31  1  0.81724742  0.78482874  0.66856817  1
  H  H32  1  0.45894973  0.66031011  0.72408984  1
