# generated using pymatgen
data_Fe4Mo12C(S8O)2
_symmetry_space_group_name_H-M   'P 1'
_cell_length_a   6.48394610
_cell_length_b   6.41202525
_cell_length_c   27.90841600
_cell_angle_alpha   93.69337570
_cell_angle_beta   94.75362703
_cell_angle_gamma   97.43854579
_symmetry_Int_Tables_number   1
_chemical_formula_structural   Fe4Mo12C(S8O)2
_chemical_formula_sum   'Fe4 Mo12 C1 S16 O2'
_cell_volume   1143.25638445
_cell_formula_units_Z   1
loop_
 _symmetry_equiv_pos_site_id
 _symmetry_equiv_pos_as_xyz
  1  'x, y, z'
loop_
 _atom_site_type_symbol
 _atom_site_label
 _atom_site_symmetry_multiplicity
 _atom_site_fract_x
 _atom_site_fract_y
 _atom_site_fract_z
 _atom_site_occupancy
  Fe  Fe0  1  0.93107713  0.15557018  0.46289062  1
  Fe  Fe1  1  0.86980249  0.13116551  0.68719339  1
  Fe  Fe2  1  0.06524100  0.84263700  0.26375600  1
  Fe  Fe3  1  0.04354197  0.82976806  0.49760673  1
  Mo  Mo4  1  0.21890465  0.53849571  0.34293032  1
  Mo  Mo5  1  0.19148850  0.53099909  0.57408620  1
  Mo  Mo6  1  0.77904973  0.45949788  0.38742227  1
  Mo  Mo7  1  0.75112366  0.44644485  0.61804832  1
  Mo  Mo8  1  0.40619802  0.21679988  0.37450476  1
  Mo  Mo9  1  0.37786545  0.20834735  0.60627272  1
  Mo  Mo10  1  0.59171991  0.78219886  0.35553230  1
  Mo  Mo11  1  0.56580777  0.77145121  0.58675855  1
  Mo  Mo12  1  0.54135300  0.40905600  0.30082200  1
  Mo  Mo13  1  0.51736863  0.39878673  0.53095102  1
  Mo  Mo14  1  0.45267876  0.58956350  0.43025310  1
  Mo  Mo15  1  0.42773087  0.58035948  0.65932252  1
  S  S16  1  0.12919573  0.35887920  0.41592779  1
  S  S17  1  0.10139088  0.35095179  0.64751347  1
  S  S18  1  0.86842500  0.63937200  0.31349000  1
  S  S19  1  0.84186166  0.62997728  0.54532264  1
  S  S20  1  0.72301900  0.14241800  0.33608800  1
  S  S21  1  0.69266785  0.13049433  0.56649709  1
  S  S22  1  0.27557794  0.85681132  0.39427454  1
  S  S23  1  0.24910312  0.84950224  0.62703103  1
  S  S24  1  0.38478400  0.73178900  0.28021200  1
  S  S25  1  0.36211883  0.72216830  0.51062559  1
  S  S26  1  0.61075726  0.26668478  0.45074918  1
  S  S27  1  0.57439024  0.27397821  0.68469197  1
  S  S28  1  0.20162900  0.19284800  0.29629700  1
  S  S29  1  0.17555805  0.18472300  0.52654753  1
  S  S30  1  0.79406313  0.80478637  0.43503856  1
  S  S31  1  0.77073663  0.78728982  0.66567415  1
  C  C32  1  0.90343351  0.10428166  0.75817483  1
  O  O33  1  0.02018606  0.27126613  0.75365875  1
  O  O34  1  0.84213706  0.98274178  0.78687607  1
