# generated using pymatgen
data_Cu4Mo12HCS16O
_symmetry_space_group_name_H-M   'P 1'
_cell_length_a   6.46503600
_cell_length_b   6.38873881
_cell_length_c   27.95633100
_cell_angle_alpha   92.75453660
_cell_angle_beta   96.62629410
_cell_angle_gamma   95.95021841
_symmetry_Int_Tables_number   1
_chemical_formula_structural   Cu4Mo12HCS16O
_chemical_formula_sum   'Cu4 Mo12 H1 C1 S16 O1'
_cell_volume   1138.69222190
_cell_formula_units_Z   1
loop_
 _symmetry_equiv_pos_site_id
 _symmetry_equiv_pos_as_xyz
  1  'x, y, z'
loop_
 _atom_site_type_symbol
 _atom_site_label
 _atom_site_symmetry_multiplicity
 _atom_site_fract_x
 _atom_site_fract_y
 _atom_site_fract_z
 _atom_site_occupancy
  Cu  Cu0  1  0.93897977  0.15563296  0.46122748  1
  Cu  Cu1  1  0.99498845  0.04165131  0.63175643  1
  Cu  Cu2  1  0.05968000  0.84039500  0.27086500  1
  Cu  Cu3  1  0.05503679  0.83025188  0.50252917  1
  Mo  Mo4  1  0.21521500  0.54428600  0.34262100  1
  Mo  Mo5  1  0.20652451  0.54015972  0.57548289  1
  Mo  Mo6  1  0.77956502  0.45579003  0.38866562  1
  Mo  Mo7  1  0.78367582  0.44866459  0.62130219  1
  Mo  Mo8  1  0.40469646  0.21670770  0.37527292  1
  Mo  Mo9  1  0.40653802  0.21235440  0.60842429  1
  Mo  Mo10  1  0.59495600  0.78352200  0.35564700  1
  Mo  Mo11  1  0.59155123  0.77784278  0.58773323  1
  Mo  Mo12  1  0.53596300  0.40601700  0.30007200  1
  Mo  Mo13  1  0.53117121  0.40298186  0.53185180  1
  Mo  Mo14  1  0.46056641  0.59170920  0.43185044  1
  Mo  Mo15  1  0.47208550  0.58564018  0.66465579  1
  S  S16  1  0.13861417  0.36639291  0.41667997  1
  S  S17  1  0.13878865  0.37973520  0.65101067  1
  S  S18  1  0.85836300  0.62855700  0.31503700  1
  S  S19  1  0.85362702  0.62386867  0.54694002  1
  S  S20  1  0.72038700  0.13919400  0.33837300  1
  S  S21  1  0.71543137  0.13099383  0.56881692  1
  S  S22  1  0.27797741  0.85989370  0.39348960  1
  S  S23  1  0.28447906  0.85448912  0.62824054  1
  S  S24  1  0.38464800  0.73460900  0.27877900  1
  S  S25  1  0.37942176  0.73051706  0.51106161  1
  S  S26  1  0.61350284  0.26416393  0.45283215  1
  S  S27  1  0.62993573  0.26846303  0.68517220  1
  S  S28  1  0.19156400  0.20303200  0.29614100  1
  S  S29  1  0.18756222  0.20056757  0.52867471  1
  S  S30  1  0.80483715  0.79578354  0.43591545  1
  S  S31  1  0.81681753  0.78525120  0.66846820  1
  C  C32  1  0.49875007  0.62530662  0.74137737  1
  H  H33  1  0.35832527  0.54014599  0.75567553  1
  O  O34  1  0.63930419  0.70734361  0.77323519  1
