# generated using pymatgen
data_Cu4Mo12H3S16N
_symmetry_space_group_name_H-M   'P 1'
_cell_length_a   6.46503600
_cell_length_b   6.38873881
_cell_length_c   27.95633100
_cell_angle_alpha   92.75453660
_cell_angle_beta   96.62629410
_cell_angle_gamma   95.95021841
_symmetry_Int_Tables_number   1
_chemical_formula_structural   Cu4Mo12H3S16N
_chemical_formula_sum   'Cu4 Mo12 H3 S16 N1'
_cell_volume   1138.69222190
_cell_formula_units_Z   1
loop_
 _symmetry_equiv_pos_site_id
 _symmetry_equiv_pos_as_xyz
  1  'x, y, z'
loop_
 _atom_site_type_symbol
 _atom_site_label
 _atom_site_symmetry_multiplicity
 _atom_site_fract_x
 _atom_site_fract_y
 _atom_site_fract_z
 _atom_site_occupancy
  Cu  Cu0  1  0.94325031  0.15796807  0.46060982  1
  Cu  Cu1  1  0.90503737  0.06587911  0.64620775  1
  Cu  Cu2  1  0.05968000  0.84039500  0.27086500  1
  Cu  Cu3  1  0.06014002  0.83643121  0.50332883  1
  Mo  Mo4  1  0.21521500  0.54428600  0.34262100  1
  Mo  Mo5  1  0.21571230  0.53346617  0.57700003  1
  Mo  Mo6  1  0.78530726  0.45591035  0.38874527  1
  Mo  Mo7  1  0.78752038  0.44073605  0.61952885  1
  Mo  Mo8  1  0.40633963  0.21742889  0.37508396  1
  Mo  Mo9  1  0.41248421  0.20593721  0.60766382  1
  Mo  Mo10  1  0.59495600  0.78352200  0.35564700  1
  Mo  Mo11  1  0.59380436  0.77292136  0.58868334  1
  Mo  Mo12  1  0.53596300  0.40601700  0.30007200  1
  Mo  Mo13  1  0.53581668  0.40203397  0.53089438  1
  Mo  Mo14  1  0.46473120  0.59424580  0.43227781  1
  Mo  Mo15  1  0.47634474  0.56864130  0.66353792  1
  S  S16  1  0.14286188  0.36967810  0.41687109  1
  S  S17  1  0.14332134  0.35756416  0.65017026  1
  S  S18  1  0.85836300  0.62855700  0.31503700  1
  S  S19  1  0.86011273  0.62562660  0.54711173  1
  S  S20  1  0.72038700  0.13919400  0.33837300  1
  S  S21  1  0.72025899  0.12525975  0.56663479  1
  S  S22  1  0.27959005  0.86059083  0.39336927  1
  S  S23  1  0.29238558  0.84863597  0.63015673  1
  S  S24  1  0.38464800  0.73460900  0.27877900  1
  S  S25  1  0.38339204  0.72825148  0.51185444  1
  S  S26  1  0.61654456  0.26442757  0.45227209  1
  S  S27  1  0.63682686  0.25394471  0.68481651  1
  S  S28  1  0.19156400  0.20303200  0.29614100  1
  S  S29  1  0.19216593  0.19898218  0.52808557  1
  S  S30  1  0.81034452  0.79633223  0.43568795  1
  S  S31  1  0.82332945  0.75637705  0.67184737  1
  N  N32  1  0.45526439  0.62999811  0.74294162  1
  H  H33  1  0.60148853  0.67129345  0.76171791  1
  H  H34  1  0.36387620  0.74644065  0.75108401  1
  H  H35  1  0.39426003  0.49484710  0.75720428  1
