# generated using pymatgen
data_Fe2Mo6S8N
_symmetry_space_group_name_H-M   'P 1'
_cell_length_a   6.48394610
_cell_length_b   6.41202525
_cell_length_c   27.90841600
_cell_angle_alpha   93.69337570
_cell_angle_beta   94.75362703
_cell_angle_gamma   97.43854579
_symmetry_Int_Tables_number   1
_chemical_formula_structural   Fe2Mo6S8N
_chemical_formula_sum   'Fe4 Mo12 S16 N2'
_cell_volume   1143.25638445
_cell_formula_units_Z   2
loop_
 _symmetry_equiv_pos_site_id
 _symmetry_equiv_pos_as_xyz
  1  'x, y, z'
loop_
 _atom_site_type_symbol
 _atom_site_label
 _atom_site_symmetry_multiplicity
 _atom_site_fract_x
 _atom_site_fract_y
 _atom_site_fract_z
 _atom_site_occupancy
  Fe  Fe0  1  0.93420023  0.15330300  0.46764907  1
  Fe  Fe1  1  0.86583271  0.09949561  0.65589073  1
  Fe  Fe2  1  0.06524100  0.84263700  0.26375600  1
  Fe  Fe3  1  0.06168068  0.83667524  0.49610776  1
  Mo  Mo4  1  0.22178085  0.53786473  0.34408330  1
  Mo  Mo5  1  0.21269158  0.53210390  0.57705767  1
  Mo  Mo6  1  0.77910425  0.45957706  0.38765449  1
  Mo  Mo7  1  0.77276405  0.44952772  0.61873089  1
  Mo  Mo8  1  0.40690507  0.21734175  0.37512696  1
  Mo  Mo9  1  0.39901706  0.20864058  0.60802465  1
  Mo  Mo10  1  0.59250890  0.78185829  0.35596143  1
  Mo  Mo11  1  0.58547392  0.77036631  0.58859865  1
  Mo  Mo12  1  0.54135300  0.40905600  0.30082200  1
  Mo  Mo13  1  0.53491985  0.40284692  0.53273778  1
  Mo  Mo14  1  0.45607134  0.58954237  0.43119617  1
  Mo  Mo15  1  0.45429501  0.57614627  0.66372009  1
  S  S16  1  0.13016459  0.35776555  0.41775975  1
  S  S17  1  0.12601550  0.35588484  0.65008399  1
  S  S18  1  0.86842500  0.63937200  0.31349000  1
  S  S19  1  0.86282475  0.63526853  0.54606241  1
  S  S20  1  0.72301900  0.14241800  0.33608800  1
  S  S21  1  0.71445214  0.12715115  0.56580080  1
  S  S22  1  0.27628289  0.85664654  0.39546730  1
  S  S23  1  0.27560086  0.84869365  0.62997009  1
  S  S24  1  0.38478400  0.73178900  0.28021200  1
  S  S25  1  0.37790946  0.72419905  0.51291126  1
  S  S26  1  0.61445676  0.26700166  0.45129152  1
  S  S27  1  0.60975242  0.26470827  0.68619030  1
  S  S28  1  0.20162900  0.19284800  0.29629700  1
  S  S29  1  0.19504907  0.18813649  0.52859843  1
  S  S30  1  0.79580855  0.80530101  0.43586689  1
  S  S31  1  0.80395053  0.76671424  0.67121971  1
  N  N32  1  0.43257877  0.63757883  0.73934904  1
  N  N33  1  0.43383867  0.64607648  0.77953553  1
