# generated using pymatgen
data_Cu4Mo12C(S8O)2
_symmetry_space_group_name_H-M   'P 1'
_cell_length_a   6.46503600
_cell_length_b   6.38873881
_cell_length_c   27.95633100
_cell_angle_alpha   92.75453660
_cell_angle_beta   96.62629410
_cell_angle_gamma   95.95021841
_symmetry_Int_Tables_number   1
_chemical_formula_structural   Cu4Mo12C(S8O)2
_chemical_formula_sum   'Cu4 Mo12 C1 S16 O2'
_cell_volume   1138.69222190
_cell_formula_units_Z   1
loop_
 _symmetry_equiv_pos_site_id
 _symmetry_equiv_pos_as_xyz
  1  'x, y, z'
loop_
 _atom_site_type_symbol
 _atom_site_label
 _atom_site_symmetry_multiplicity
 _atom_site_fract_x
 _atom_site_fract_y
 _atom_site_fract_z
 _atom_site_occupancy
  Cu  Cu0  1  0.93598120  0.16071457  0.46033197  1
  Cu  Cu1  1  0.96797267  0.04072178  0.63390936  1
  Cu  Cu2  1  0.05968000  0.84039500  0.27086500  1
  Cu  Cu3  1  0.04803401  0.83684672  0.50311286  1
  Mo  Mo4  1  0.21521500  0.54428600  0.34262100  1
  Mo  Mo5  1  0.19950335  0.54010384  0.57556385  1
  Mo  Mo6  1  0.78341524  0.45595127  0.38876783  1
  Mo  Mo7  1  0.76428769  0.44784540  0.62064012  1
  Mo  Mo8  1  0.40554095  0.21692351  0.37502972  1
  Mo  Mo9  1  0.39192325  0.21705701  0.60794750  1
  Mo  Mo10  1  0.59495600  0.78352200  0.35564700  1
  Mo  Mo11  1  0.57685340  0.77672130  0.58696816  1
  Mo  Mo12  1  0.53596300  0.40601700  0.30007200  1
  Mo  Mo13  1  0.52241806  0.40559839  0.53072979  1
  Mo  Mo14  1  0.46169382  0.59351304  0.43204153  1
  Mo  Mo15  1  0.45189319  0.58235634  0.66079906  1
  S  S16  1  0.14057213  0.36771657  0.41647741  1
  S  S17  1  0.12065875  0.37654390  0.65113598  1
  S  S18  1  0.85836300  0.62855700  0.31503700  1
  S  S19  1  0.84426361  0.62982262  0.54668948  1
  S  S20  1  0.72038700  0.13919400  0.33837300  1
  S  S21  1  0.70170653  0.13105417  0.56832446  1
  S  S22  1  0.27830155  0.86067611  0.39315853  1
  S  S23  1  0.26706589  0.85896096  0.62764061  1
  S  S24  1  0.38464800  0.73460900  0.27877900  1
  S  S25  1  0.36993097  0.73128184  0.50995308  1
  S  S26  1  0.61203217  0.26543069  0.45263433  1
  S  S27  1  0.60918271  0.27644573  0.68587340  1
  S  S28  1  0.19156400  0.20303200  0.29614100  1
  S  S29  1  0.17907422  0.20299103  0.52791401  1
  S  S30  1  0.80584700  0.79771718  0.43540905  1
  S  S31  1  0.79492563  0.77801183  0.66920550  1
  C  C32  1  0.95563182  0.13281278  0.77401916  1
  O  O33  1  0.03415137  0.30102223  0.76748513  1
  O  O34  1  0.87885791  0.96446937  0.78092340  1
