# generated using pymatgen
data_Cu4Mo12HC(S8O)2
_symmetry_space_group_name_H-M   'P 1'
_cell_length_a   6.46503600
_cell_length_b   6.38873881
_cell_length_c   27.95633100
_cell_angle_alpha   92.75453660
_cell_angle_beta   96.62629410
_cell_angle_gamma   95.95021841
_symmetry_Int_Tables_number   1
_chemical_formula_structural   Cu4Mo12HC(S8O)2
_chemical_formula_sum   'Cu4 Mo12 H1 C1 S16 O2'
_cell_volume   1138.69222190
_cell_formula_units_Z   1
loop_
 _symmetry_equiv_pos_site_id
 _symmetry_equiv_pos_as_xyz
  1  'x, y, z'
loop_
 _atom_site_type_symbol
 _atom_site_label
 _atom_site_symmetry_multiplicity
 _atom_site_fract_x
 _atom_site_fract_y
 _atom_site_fract_z
 _atom_site_occupancy
  Cu  Cu0  1  0.94147176  0.15908640  0.46111429  1
  Cu  Cu1  1  0.90951568  0.06879096  0.64684417  1
  Cu  Cu2  1  0.05968000  0.84039500  0.27086500  1
  Cu  Cu3  1  0.05671627  0.83635741  0.50393527  1
  Mo  Mo4  1  0.21521500  0.54428600  0.34262100  1
  Mo  Mo5  1  0.21212435  0.53513595  0.57793001  1
  Mo  Mo6  1  0.78372467  0.45646934  0.38884945  1
  Mo  Mo7  1  0.78372627  0.44270127  0.62068347  1
  Mo  Mo8  1  0.40621560  0.21766755  0.37527716  1
  Mo  Mo9  1  0.40909421  0.20839550  0.60884669  1
  Mo  Mo10  1  0.59495600  0.78352200  0.35564700  1
  Mo  Mo11  1  0.58958197  0.77376436  0.58966725  1
  Mo  Mo12  1  0.53596300  0.40601700  0.30007200  1
  Mo  Mo13  1  0.53266630  0.40262764  0.53171042  1
  Mo  Mo14  1  0.46329162  0.59423972  0.43247934  1
  Mo  Mo15  1  0.47358339  0.57324413  0.66623950  1
  S  S16  1  0.14167788  0.36877704  0.41691451  1
  S  S17  1  0.14021773  0.36339375  0.65136474  1
  S  S18  1  0.85836300  0.62855700  0.31503700  1
  S  S19  1  0.85645131  0.62666997  0.54807509  1
  S  S20  1  0.72038700  0.13919400  0.33837300  1
  S  S21  1  0.71543944  0.12616559  0.56774500  1
  S  S22  1  0.27961093  0.86063568  0.39355918  1
  S  S23  1  0.28819924  0.85078123  0.63078893  1
  S  S24  1  0.38464800  0.73460900  0.27877900  1
  S  S25  1  0.37986481  0.72789359  0.51240695  1
  S  S26  1  0.61549836  0.26545765  0.45279163  1
  S  S27  1  0.63290204  0.25769657  0.68585119  1
  S  S28  1  0.19156400  0.20303200  0.29614100  1
  S  S29  1  0.18889020  0.20016275  0.52896673  1
  S  S30  1  0.80853541  0.79681449  0.43602446  1
  S  S31  1  0.82009366  0.75997464  0.67207885  1
  C  C32  1  0.49045004  0.62284119  0.78230648  1
  O  O33  1  0.48960266  0.44227111  0.79736657  1
  O  O34  1  0.45672588  0.67545250  0.73864188  1
  H  H35  1  0.52280828  0.76202257  0.80892131  1
