# generated using pymatgen
data_Cu4Mo12HC(S8O)2
_symmetry_space_group_name_H-M   'P 1'
_cell_length_a   6.46503600
_cell_length_b   6.38873881
_cell_length_c   27.95633100
_cell_angle_alpha   92.75453660
_cell_angle_beta   96.62629410
_cell_angle_gamma   95.95021841
_symmetry_Int_Tables_number   1
_chemical_formula_structural   Cu4Mo12HC(S8O)2
_chemical_formula_sum   'Cu4 Mo12 H1 C1 S16 O2'
_cell_volume   1138.69222190
_cell_formula_units_Z   1
loop_
 _symmetry_equiv_pos_site_id
 _symmetry_equiv_pos_as_xyz
  1  'x, y, z'
loop_
 _atom_site_type_symbol
 _atom_site_label
 _atom_site_symmetry_multiplicity
 _atom_site_fract_x
 _atom_site_fract_y
 _atom_site_fract_z
 _atom_site_occupancy
  Cu  Cu0  1  0.93803447  0.15451228  0.46108264  1
  Cu  Cu1  1  0.98715677  0.03204541  0.63190992  1
  Cu  Cu2  1  0.05968000  0.84039500  0.27086500  1
  Cu  Cu3  1  0.05040417  0.82860649  0.50349986  1
  Mo  Mo4  1  0.21521500  0.54428600  0.34262100  1
  Mo  Mo5  1  0.20453533  0.53239812  0.57681518  1
  Mo  Mo6  1  0.77928392  0.45553421  0.38873828  1
  Mo  Mo7  1  0.77460351  0.44017183  0.62172409  1
  Mo  Mo8  1  0.40449658  0.21628837  0.37520828  1
  Mo  Mo9  1  0.40145938  0.20722441  0.60886917  1
  Mo  Mo10  1  0.59495600  0.78352200  0.35564700  1
  Mo  Mo11  1  0.58341045  0.76838273  0.58830780  1
  Mo  Mo12  1  0.53596300  0.40601700  0.30007200  1
  Mo  Mo13  1  0.52759595  0.39695245  0.53195063  1
  Mo  Mo14  1  0.46001445  0.59066790  0.43192398  1
  Mo  Mo15  1  0.46310278  0.57615782  0.66497349  1
  S  S16  1  0.13791476  0.36572648  0.41655405  1
  S  S17  1  0.13095413  0.36996498  0.65177218  1
  S  S18  1  0.85836300  0.62855700  0.31503700  1
  S  S19  1  0.84959530  0.62041647  0.54761016  1
  S  S20  1  0.72038700  0.13919400  0.33837300  1
  S  S21  1  0.70986622  0.12296086  0.56903440  1
  S  S22  1  0.27820581  0.85947044  0.39358827  1
  S  S23  1  0.27753547  0.84893083  0.62883773  1
  S  S24  1  0.38464800  0.73460900  0.27877900  1
  S  S25  1  0.37349619  0.72274671  0.51129466  1
  S  S26  1  0.61279380  0.26280397  0.45281797  1
  S  S27  1  0.62293242  0.26470779  0.68641245  1
  S  S28  1  0.19156400  0.20303200  0.29614100  1
  S  S29  1  0.18450481  0.19512616  0.52881055  1
  S  S30  1  0.80438301  0.79506771  0.43601506  1
  S  S31  1  0.80951950  0.77517089  0.66888679  1
  C  C32  1  0.47993921  0.62916785  0.78032946  1
  O  O33  1  0.48926563  0.44334920  0.79198448  1
  O  O34  1  0.45171148  0.69655129  0.73797615  1
  H  H35  1  0.49854924  0.75670677  0.80978495  1
