# generated using pymatgen
data_Cu2Mo6S8N
_symmetry_space_group_name_H-M   'P 1'
_cell_length_a   6.46503600
_cell_length_b   6.38873881
_cell_length_c   27.95633100
_cell_angle_alpha   92.75453660
_cell_angle_beta   96.62629410
_cell_angle_gamma   95.95021841
_symmetry_Int_Tables_number   1
_chemical_formula_structural   Cu2Mo6S8N
_chemical_formula_sum   'Cu4 Mo12 S16 N2'
_cell_volume   1138.69222190
_cell_formula_units_Z   2
loop_
 _symmetry_equiv_pos_site_id
 _symmetry_equiv_pos_as_xyz
  1  'x, y, z'
loop_
 _atom_site_type_symbol
 _atom_site_label
 _atom_site_symmetry_multiplicity
 _atom_site_fract_x
 _atom_site_fract_y
 _atom_site_fract_z
 _atom_site_occupancy
  Cu  Cu0  1  0.94273820  0.16310877  0.46103297  1
  Cu  Cu1  1  0.90935526  0.11105047  0.66874066  1
  Cu  Cu2  1  0.05968000  0.84039500  0.27086500  1
  Cu  Cu3  1  0.05925800  0.84200060  0.50371961  1
  Mo  Mo4  1  0.21521500  0.54428600  0.34262100  1
  Mo  Mo5  1  0.21695845  0.53901553  0.57728024  1
  Mo  Mo6  1  0.78714475  0.45645006  0.38893667  1
  Mo  Mo7  1  0.78531880  0.44758936  0.61967653  1
  Mo  Mo8  1  0.40725304  0.21852082  0.37516950  1
  Mo  Mo9  1  0.41181438  0.21428082  0.60857109  1
  Mo  Mo10  1  0.59495600  0.78352200  0.35564700  1
  Mo  Mo11  1  0.59387721  0.77644728  0.58893511  1
  Mo  Mo12  1  0.53596300  0.40601700  0.30007200  1
  Mo  Mo13  1  0.53549362  0.40497112  0.53144843  1
  Mo  Mo14  1  0.46560608  0.59618085  0.43249824  1
  Mo  Mo15  1  0.47403605  0.58297659  0.66472718  1
  S  S16  1  0.14422813  0.37122933  0.41700054  1
  S  S17  1  0.14519420  0.36526386  0.65125949  1
  S  S18  1  0.85836300  0.62855700  0.31503700  1
  S  S19  1  0.85947631  0.62828445  0.54701273  1
  S  S20  1  0.72038700  0.13919400  0.33837300  1
  S  S21  1  0.71985009  0.13276696  0.56821875  1
  S  S22  1  0.27981985  0.86148678  0.39336446  1
  S  S23  1  0.28805086  0.85662593  0.62948881  1
  S  S24  1  0.38464800  0.73460900  0.27877900  1
  S  S25  1  0.38228904  0.73171712  0.51180856  1
  S  S26  1  0.61679863  0.26660210  0.45256536  1
  S  S27  1  0.62293238  0.26323403  0.68656569  1
  S  S28  1  0.19156400  0.20303200  0.29614100  1
  S  S29  1  0.19173699  0.20257372  0.52868543  1
  S  S30  1  0.81118538  0.79787757  0.43572250  1
  S  S31  1  0.81809238  0.77376658  0.66947554  1
  N  N32  1  0.46532393  0.64529159  0.74017545  1
  N  N33  1  0.46754510  0.65578869  0.78027426  1
