# generated using pymatgen
data_Fe4Mo12H(S8N)2
_symmetry_space_group_name_H-M   'P 1'
_cell_length_a   6.48394610
_cell_length_b   6.41202525
_cell_length_c   27.90841600
_cell_angle_alpha   93.69337570
_cell_angle_beta   94.75362703
_cell_angle_gamma   97.43854579
_symmetry_Int_Tables_number   1
_chemical_formula_structural   Fe4Mo12H(S8N)2
_chemical_formula_sum   'Fe4 Mo12 H1 S16 N2'
_cell_volume   1143.25638445
_cell_formula_units_Z   1
loop_
 _symmetry_equiv_pos_site_id
 _symmetry_equiv_pos_as_xyz
  1  'x, y, z'
loop_
 _atom_site_type_symbol
 _atom_site_label
 _atom_site_symmetry_multiplicity
 _atom_site_fract_x
 _atom_site_fract_y
 _atom_site_fract_z
 _atom_site_occupancy
  Fe  Fe0  1  0.92816119  0.15457362  0.46022372  1
  Fe  Fe1  1  0.85023543  0.09705876  0.65526894  1
  Fe  Fe2  1  0.06524100  0.84263700  0.26375600  1
  Fe  Fe3  1  0.05670890  0.83237138  0.50252551  1
  Mo  Mo4  1  0.22144129  0.54014554  0.34362325  1
  Mo  Mo5  1  0.19339561  0.52729094  0.57556105  1
  Mo  Mo6  1  0.78576902  0.46005035  0.38762802  1
  Mo  Mo7  1  0.75839083  0.44487159  0.61843674  1
  Mo  Mo8  1  0.40973164  0.21908822  0.37499972  1
  Mo  Mo9  1  0.38254886  0.20582029  0.60714684  1
  Mo  Mo10  1  0.59499757  0.78127455  0.35597053  1
  Mo  Mo11  1  0.56973224  0.76617313  0.58815940  1
  Mo  Mo12  1  0.54135300  0.40905600  0.30082200  1
  Mo  Mo13  1  0.52143162  0.39659639  0.53118676  1
  Mo  Mo14  1  0.45826349  0.59346612  0.43184514  1
  Mo  Mo15  1  0.43705039  0.57909026  0.66584745  1
  S  S16  1  0.13452562  0.36007329  0.41642817  1
  S  S17  1  0.11193588  0.35353658  0.64947156  1
  S  S18  1  0.86842500  0.63937200  0.31349000  1
  S  S19  1  0.84649228  0.62924388  0.54629975  1
  S  S20  1  0.72301900  0.14241800  0.33608800  1
  S  S21  1  0.69559655  0.12166032  0.56514433  1
  S  S22  1  0.28045965  0.85871750  0.39504016  1
  S  S23  1  0.25858946  0.84345561  0.62869477  1
  S  S24  1  0.38478400  0.73178900  0.28021200  1
  S  S25  1  0.36746404  0.71917574  0.51177374  1
  S  S26  1  0.61656138  0.27097999  0.45128655  1
  S  S27  1  0.59177176  0.25419581  0.68440291  1
  S  S28  1  0.20162900  0.19284800  0.29629700  1
  S  S29  1  0.17705887  0.18482550  0.52522336  1
  S  S30  1  0.80537578  0.80367595  0.43758476  1
  S  S31  1  0.78952657  0.76351738  0.67036506  1
  N  N32  1  0.44082934  0.63634628  0.73476438  1
  N  N33  1  0.45166476  0.66255954  0.77763864  1
  H  H34  1  0.54970134  0.57742536  0.79841212  1
