# generated using pymatgen
data_Cu4Mo12H3S16N
_symmetry_space_group_name_H-M   'P 1'
_cell_length_a   6.46503600
_cell_length_b   6.38873881
_cell_length_c   27.95633100
_cell_angle_alpha   92.75453660
_cell_angle_beta   96.62629410
_cell_angle_gamma   95.95021841
_symmetry_Int_Tables_number   1
_chemical_formula_structural   Cu4Mo12H3S16N
_chemical_formula_sum   'Cu4 Mo12 H3 S16 N1'
_cell_volume   1138.69222190
_cell_formula_units_Z   1
loop_
 _symmetry_equiv_pos_site_id
 _symmetry_equiv_pos_as_xyz
  1  'x, y, z'
loop_
 _atom_site_type_symbol
 _atom_site_label
 _atom_site_symmetry_multiplicity
 _atom_site_fract_x
 _atom_site_fract_y
 _atom_site_fract_z
 _atom_site_occupancy
  Cu  Cu0  1  0.93658057  0.15853416  0.46034085  1
  Cu  Cu1  1  0.91663195  0.14621150  0.68910028  1
  Cu  Cu2  1  0.05968000  0.84039500  0.27086500  1
  Cu  Cu3  1  0.04627528  0.83409254  0.50359344  1
  Mo  Mo4  1  0.21521500  0.54428600  0.34262100  1
  Mo  Mo5  1  0.19770983  0.53923455  0.57531538  1
  Mo  Mo6  1  0.78199140  0.45577511  0.38887978  1
  Mo  Mo7  1  0.77194081  0.44513256  0.62027193  1
  Mo  Mo8  1  0.40476432  0.21650394  0.37502936  1
  Mo  Mo9  1  0.39475878  0.21501855  0.60783675  1
  Mo  Mo10  1  0.59495600  0.78352200  0.35564700  1
  Mo  Mo11  1  0.57695656  0.77633656  0.58738930  1
  Mo  Mo12  1  0.53596300  0.40601700  0.30007200  1
  Mo  Mo13  1  0.52243211  0.39956085  0.53073723  1
  Mo  Mo14  1  0.46005170  0.59181373  0.43219757  1
  Mo  Mo15  1  0.45758396  0.58727279  0.66057884  1
  S  S16  1  0.13914153  0.36638965  0.41639309  1
  S  S17  1  0.13043478  0.36729445  0.65059485  1
  S  S18  1  0.85836300  0.62855700  0.31503700  1
  S  S19  1  0.84273145  0.62477744  0.54691307  1
  S  S20  1  0.72038700  0.13919400  0.33837300  1
  S  S21  1  0.70596780  0.13140008  0.56924764  1
  S  S22  1  0.27864437  0.86008130  0.39329478  1
  S  S23  1  0.26594852  0.85839089  0.62750081  1
  S  S24  1  0.38464800  0.73460900  0.27877900  1
  S  S25  1  0.36796846  0.72725525  0.51055234  1
  S  S26  1  0.61181383  0.26401439  0.45261133  1
  S  S27  1  0.60203832  0.27415714  0.68630890  1
  S  S28  1  0.19156400  0.20303200  0.29614100  1
  S  S29  1  0.17774005  0.19859007  0.52828346  1
  S  S30  1  0.80409242  0.79586147  0.43598873  1
  S  S31  1  0.79568253  0.79070717  0.66577721  1
  N  N32  1  0.02020436  0.13169860  0.76043707  1
  H  H33  1  0.17895030  0.15508854  0.77064016  1
  H  H34  1  0.95558346  0.24273107  0.78031932  1
  H  H35  1  0.96843200  0.98755967  0.77227000  1
