# generated using pymatgen
data_Mo12HS24
_symmetry_space_group_name_H-M   'P 1'
_cell_length_a   6.31973600
_cell_length_b   12.46268000
_cell_length_c   24.68128287
_cell_angle_alpha   90.00000000
_cell_angle_beta   93.66151225
_cell_angle_gamma   90.00000000
_symmetry_Int_Tables_number   1
_chemical_formula_structural   Mo12HS24
_chemical_formula_sum   'Mo12 H1 S24'
_cell_volume   1939.95071504
_cell_formula_units_Z   1
loop_
 _symmetry_equiv_pos_site_id
 _symmetry_equiv_pos_as_xyz
  1  'x, y, z'
loop_
 _atom_site_type_symbol
 _atom_site_label
 _atom_site_symmetry_multiplicity
 _atom_site_fract_x
 _atom_site_fract_y
 _atom_site_fract_z
 _atom_site_occupancy
  Mo  Mo0  1  0.34212400  0.25000000  0.37044000  1
  Mo  Mo1  1  0.84212400  0.25000000  0.37044000  1
  Mo  Mo2  1  0.10232000  0.75000000  0.40733800  1
  Mo  Mo3  1  0.60232000  0.75000000  0.40733800  1
  Mo  Mo4  1  0.12093788  0.24999760  0.48166540  1
  Mo  Mo5  1  0.61897792  0.24999754  0.48166860  1
  Mo  Mo6  1  0.38071116  0.74999688  0.52073788  1
  Mo  Mo7  1  0.88069431  0.74999773  0.52067908  1
  Mo  Mo8  1  0.39849976  0.24999805  0.59600498  1
  Mo  Mo9  1  0.89849823  0.25000047  0.59598141  1
  Mo  Mo10  1  0.15730192  0.74999289  0.62711066  1
  Mo  Mo11  1  0.65764601  0.74999301  0.62711161  1
  S  S12  1  0.10138600  0.37552900  0.40747300  1
  S  S13  1  0.60138600  0.37552900  0.40747300  1
  S  S14  1  0.34305100  0.87552500  0.37029900  1
  S  S15  1  0.84305100  0.87552500  0.37029900  1
  S  S16  1  0.10138600  0.12447100  0.40747300  1
  S  S17  1  0.60138600  0.12447100  0.40747300  1
  S  S18  1  0.34305100  0.62447500  0.37029900  1
  S  S19  1  0.84305100  0.62447500  0.37029900  1
  S  S20  1  0.37961816  0.37484280  0.52031256  1
  S  S21  1  0.87945602  0.37348121  0.51964423  1
  S  S22  1  0.12113940  0.87405647  0.48243706  1
  S  S23  1  0.62106602  0.87405751  0.48243699  1
  S  S24  1  0.37961815  0.12515361  0.52031416  1
  S  S25  1  0.87945649  0.12651728  0.51964581  1
  S  S26  1  0.12113802  0.62593809  0.48243654  1
  S  S27  1  0.62106637  0.62593707  0.48243647  1
  S  S28  1  0.15212053  0.37428451  0.63341877  1
  S  S29  1  0.66356875  0.37428660  0.63341651  1
  S  S30  1  0.39947022  0.87655363  0.59526746  1
  S  S31  1  0.89944452  0.87660698  0.59517385  1
  S  S32  1  0.15211609  0.12570479  0.63341752  1
  S  S33  1  0.66357074  0.12570386  0.63341555  1
  S  S34  1  0.39946820  0.62343335  0.59526672  1
  S  S35  1  0.89944320  0.62338188  0.59517223  1
  H  H36  1  0.41606845  0.24999553  0.66639986  1
