# generated using pymatgen
data_Cu4Mo12H3S16N
_symmetry_space_group_name_H-M   'P 1'
_cell_length_a   6.46503600
_cell_length_b   6.38873881
_cell_length_c   27.95633100
_cell_angle_alpha   92.75453660
_cell_angle_beta   96.62629410
_cell_angle_gamma   95.95021841
_symmetry_Int_Tables_number   1
_chemical_formula_structural   Cu4Mo12H3S16N
_chemical_formula_sum   'Cu4 Mo12 H3 S16 N1'
_cell_volume   1138.69222190
_cell_formula_units_Z   1
loop_
 _symmetry_equiv_pos_site_id
 _symmetry_equiv_pos_as_xyz
  1  'x, y, z'
loop_
 _atom_site_type_symbol
 _atom_site_label
 _atom_site_symmetry_multiplicity
 _atom_site_fract_x
 _atom_site_fract_y
 _atom_site_fract_z
 _atom_site_occupancy
  Cu  Cu0  1  0.93161159  0.16380033  0.46096042  1
  Cu  Cu1  1  0.06963411  0.03313801  0.67627793  1
  Cu  Cu2  1  0.05968000  0.84039500  0.27086500  1
  Cu  Cu3  1  0.03874055  0.83634602  0.50397481  1
  Mo  Mo4  1  0.21521500  0.54428600  0.34262100  1
  Mo  Mo5  1  0.18826956  0.54049210  0.57649247  1
  Mo  Mo6  1  0.78106104  0.45606922  0.38899463  1
  Mo  Mo7  1  0.74978571  0.45508274  0.62127034  1
  Mo  Mo8  1  0.40409182  0.21725277  0.37513588  1
  Mo  Mo9  1  0.38112832  0.21941180  0.60960072  1
  Mo  Mo10  1  0.59495600  0.78352200  0.35564700  1
  Mo  Mo11  1  0.56664787  0.78236273  0.58713921  1
  Mo  Mo12  1  0.53596300  0.40601700  0.30007200  1
  Mo  Mo13  1  0.51084246  0.40494845  0.53121855  1
  Mo  Mo14  1  0.45843249  0.59340358  0.43228483  1
  Mo  Mo15  1  0.44087083  0.58683258  0.66192936  1
  S  S16  1  0.13779174  0.36677476  0.41652473  1
  S  S17  1  0.10863137  0.37959063  0.65235822  1
  S  S18  1  0.85836300  0.62855700  0.31503700  1
  S  S19  1  0.83126961  0.63130848  0.54692189  1
  S  S20  1  0.72038700  0.13919400  0.33837300  1
  S  S21  1  0.69209613  0.13861881  0.57105230  1
  S  S22  1  0.27747646  0.86091130  0.39293926  1
  S  S23  1  0.25327356  0.85934223  0.62776030  1
  S  S24  1  0.38464800  0.73460900  0.27877900  1
  S  S25  1  0.36015493  0.73137278  0.50988836  1
  S  S26  1  0.60721470  0.26599002  0.45332163  1
  S  S27  1  0.59833520  0.28218059  0.68755985  1
  S  S28  1  0.19156400  0.20303200  0.29614100  1
  S  S29  1  0.16901868  0.20047824  0.52948380  1
  S  S30  1  0.80214090  0.79808813  0.43564357  1
  S  S31  1  0.77462459  0.79698875  0.66561466  1
  N  N32  1  0.03961511  0.11036344  0.74730166  1
  H  H33  1  0.17149627  0.16686814  0.77036941  1
  H  H34  1  0.93776896  0.22442911  0.74702825  1
  H  H35  1  0.96786552  0.98390252  0.76284709  1
