# generated using pymatgen
data_Fe2Mo6S8N
_symmetry_space_group_name_H-M   'P 1'
_cell_length_a   6.48394610
_cell_length_b   6.41202525
_cell_length_c   27.90841600
_cell_angle_alpha   93.69337570
_cell_angle_beta   94.75362703
_cell_angle_gamma   97.43854579
_symmetry_Int_Tables_number   1
_chemical_formula_structural   Fe2Mo6S8N
_chemical_formula_sum   'Fe4 Mo12 S16 N2'
_cell_volume   1143.25638445
_cell_formula_units_Z   2
loop_
 _symmetry_equiv_pos_site_id
 _symmetry_equiv_pos_as_xyz
  1  'x, y, z'
loop_
 _atom_site_type_symbol
 _atom_site_label
 _atom_site_symmetry_multiplicity
 _atom_site_fract_x
 _atom_site_fract_y
 _atom_site_fract_z
 _atom_site_occupancy
  Fe  Fe0  1  0.92206616  0.15444212  0.45910122  1
  Fe  Fe1  1  0.86569932  0.12224995  0.68092848  1
  Fe  Fe2  1  0.06524100  0.84263700  0.26375600  1
  Fe  Fe3  1  0.04475867  0.83185716  0.50302728  1
  Mo  Mo4  1  0.22150342  0.53899524  0.34335743  1
  Mo  Mo5  1  0.18128157  0.52685284  0.57463218  1
  Mo  Mo6  1  0.78261219  0.46083554  0.38739182  1
  Mo  Mo7  1  0.74460462  0.44009064  0.61760404  1
  Mo  Mo8  1  0.40752453  0.21835350  0.37478890  1
  Mo  Mo9  1  0.37007258  0.20548126  0.60581210  1
  Mo  Mo10  1  0.59398063  0.78161595  0.35576998  1
  Mo  Mo11  1  0.55862067  0.76660702  0.58676728  1
  Mo  Mo12  1  0.54135300  0.40905600  0.30082200  1
  Mo  Mo13  1  0.51134348  0.39421661  0.52975423  1
  Mo  Mo14  1  0.45388528  0.59256939  0.43162892  1
  Mo  Mo15  1  0.42460449  0.57410571  0.65941590  1
  S  S16  1  0.13105487  0.36017143  0.41601122  1
  S  S17  1  0.09801219  0.35162081  0.64870115  1
  S  S18  1  0.86842500  0.63937200  0.31349000  1
  S  S19  1  0.83458151  0.62752308  0.54591438  1
  S  S20  1  0.72301900  0.14241800  0.33608800  1
  S  S21  1  0.68586707  0.12503003  0.56590563  1
  S  S22  1  0.27858751  0.85800858  0.39445298  1
  S  S23  1  0.24562980  0.84582312  0.62772981  1
  S  S24  1  0.38478400  0.73178900  0.28021200  1
  S  S25  1  0.35492506  0.71682184  0.51050242  1
  S  S26  1  0.61156068  0.27070278  0.45099346  1
  S  S27  1  0.56878517  0.26540738  0.68357864  1
  S  S28  1  0.20162900  0.19284800  0.29629700  1
  S  S29  1  0.16543704  0.18606673  0.52416333  1
  S  S30  1  0.80002903  0.80249631  0.43757471  1
  S  S31  1  0.76822536  0.77361904  0.66585280  1
  N  N32  1  0.93491037  0.13575056  0.74805981  1
  N  N33  1  0.93175444  0.13286547  0.78821837  1
