# generated using pymatgen
data_Cu4Mo12HC(S8O)2
_symmetry_space_group_name_H-M   'P 1'
_cell_length_a   6.46503600
_cell_length_b   6.38873881
_cell_length_c   27.95633100
_cell_angle_alpha   92.75453660
_cell_angle_beta   96.62629410
_cell_angle_gamma   95.95021841
_symmetry_Int_Tables_number   1
_chemical_formula_structural   Cu4Mo12HC(S8O)2
_chemical_formula_sum   'Cu4 Mo12 H1 C1 S16 O2'
_cell_volume   1138.69222190
_cell_formula_units_Z   1
loop_
 _symmetry_equiv_pos_site_id
 _symmetry_equiv_pos_as_xyz
  1  'x, y, z'
loop_
 _atom_site_type_symbol
 _atom_site_label
 _atom_site_symmetry_multiplicity
 _atom_site_fract_x
 _atom_site_fract_y
 _atom_site_fract_z
 _atom_site_occupancy
  Cu  Cu0  1  0.92977152  0.15658048  0.46002228  1
  Cu  Cu1  1  0.07081910  0.02388910  0.67955554  1
  Cu  Cu2  1  0.05968000  0.84039500  0.27086500  1
  Cu  Cu3  1  0.03598397  0.83002670  0.50352555  1
  Mo  Mo4  1  0.21521500  0.54428600  0.34262100  1
  Mo  Mo5  1  0.18367670  0.53380343  0.57511513  1
  Mo  Mo6  1  0.77655533  0.45489445  0.38881805  1
  Mo  Mo7  1  0.75097617  0.44592950  0.62021018  1
  Mo  Mo8  1  0.40260294  0.21518422  0.37490194  1
  Mo  Mo9  1  0.37989132  0.21414732  0.60814733  1
  Mo  Mo10  1  0.59495600  0.78352200  0.35564700  1
  Mo  Mo11  1  0.56277752  0.77309037  0.58649455  1
  Mo  Mo12  1  0.53596300  0.40601700  0.30007200  1
  Mo  Mo13  1  0.50888238  0.39678318  0.53045462  1
  Mo  Mo14  1  0.45537494  0.58938298  0.43163241  1
  Mo  Mo15  1  0.43771737  0.57972933  0.66044070  1
  S  S16  1  0.13445615  0.36358323  0.41586502  1
  S  S17  1  0.10802378  0.36997034  0.65084475  1
  S  S18  1  0.85836300  0.62855700  0.31503700  1
  S  S19  1  0.82797200  0.62398866  0.54611023  1
  S  S20  1  0.72038700  0.13919400  0.33837300  1
  S  S21  1  0.69126941  0.12944600  0.56972858  1
  S  S22  1  0.27615139  0.85931055  0.39317329  1
  S  S23  1  0.24776393  0.85339111  0.62670975  1
  S  S24  1  0.38464800  0.73460900  0.27877900  1
  S  S25  1  0.35634114  0.72407616  0.50947119  1
  S  S26  1  0.60623261  0.26229990  0.45267894  1
  S  S27  1  0.59844294  0.27569414  0.68635443  1
  S  S28  1  0.19156400  0.20303200  0.29614100  1
  S  S29  1  0.16703638  0.19398090  0.52828134  1
  S  S30  1  0.79846132  0.79540322  0.43562885  1
  S  S31  1  0.77315348  0.78580791  0.66470778  1
  C  C32  1  0.04416168  0.11150412  0.74660997  1
  O  O33  1  0.07799283  0.28957566  0.76789841  1
  O  O34  1  0.95322901  0.95258447  0.77143366  1
  H  H35  1  0.92498938  0.01511923  0.80304423  1
