# generated using pymatgen
data_Cu4Mo12HCS16O
_symmetry_space_group_name_H-M   'P 1'
_cell_length_a   6.46503600
_cell_length_b   6.38873881
_cell_length_c   27.95633100
_cell_angle_alpha   92.75453660
_cell_angle_beta   96.62629410
_cell_angle_gamma   95.95021841
_symmetry_Int_Tables_number   1
_chemical_formula_structural   Cu4Mo12HCS16O
_chemical_formula_sum   'Cu4 Mo12 H1 C1 S16 O1'
_cell_volume   1138.69222190
_cell_formula_units_Z   1
loop_
 _symmetry_equiv_pos_site_id
 _symmetry_equiv_pos_as_xyz
  1  'x, y, z'
loop_
 _atom_site_type_symbol
 _atom_site_label
 _atom_site_symmetry_multiplicity
 _atom_site_fract_x
 _atom_site_fract_y
 _atom_site_fract_z
 _atom_site_occupancy
  Cu  Cu0  1  0.93642330  0.17138054  0.46175839  1
  Cu  Cu1  1  0.96053097  0.05274858  0.62864899  1
  Cu  Cu2  1  0.05968000  0.84039500  0.27086500  1
  Cu  Cu3  1  0.04888656  0.85469154  0.50334543  1
  Mo  Mo4  1  0.21521500  0.54428600  0.34262100  1
  Mo  Mo5  1  0.20607492  0.55585522  0.57674649  1
  Mo  Mo6  1  0.78055588  0.45690412  0.38894812  1
  Mo  Mo7  1  0.76819950  0.46474891  0.62179036  1
  Mo  Mo8  1  0.40562287  0.22014502  0.37558000  1
  Mo  Mo9  1  0.39782844  0.23792893  0.60993942  1
  Mo  Mo10  1  0.59495600  0.78352200  0.35564700  1
  Mo  Mo11  1  0.57676777  0.79420627  0.58680226  1
  Mo  Mo12  1  0.53596300  0.40601700  0.30007200  1
  Mo  Mo13  1  0.52572957  0.42204717  0.53290769  1
  Mo  Mo14  1  0.46100655  0.59819753  0.43204214  1
  Mo  Mo15  1  0.44729971  0.59973745  0.66135372  1
  S  S16  1  0.13998870  0.37165064  0.41696785  1
  S  S17  1  0.12261745  0.38254411  0.65396697  1
  S  S18  1  0.85836300  0.62855700  0.31503700  1
  S  S19  1  0.84813473  0.64560490  0.54770245  1
  S  S20  1  0.72038700  0.13919400  0.33837300  1
  S  S21  1  0.70503271  0.14689277  0.56868001  1
  S  S22  1  0.27656942  0.86285321  0.39302621  1
  S  S23  1  0.26545977  0.87605886  0.62798436  1
  S  S24  1  0.38464800  0.73460900  0.27877900  1
  S  S25  1  0.36954115  0.74343417  0.51005087  1
  S  S26  1  0.61152058  0.27155246  0.45373444  1
  S  S27  1  0.61370204  0.29742915  0.68820861  1
  S  S28  1  0.19156400  0.20303200  0.29614100  1
  S  S29  1  0.18342955  0.21708337  0.52984098  1
  S  S30  1  0.80522634  0.80075839  0.43545672  1
  S  S31  1  0.79645276  0.79120659  0.66905488  1
  C  C32  1  0.92708067  0.93253249  0.72509907  1
  H  H33  1  0.83185327  0.06011665  0.73485021  1
  O  O34  1  0.08984380  0.89203409  0.74697935  1
