# generated using pymatgen
data_Mo12HS24
_symmetry_space_group_name_H-M   'P 1'
_cell_length_a   6.31973600
_cell_length_b   12.46268000
_cell_length_c   24.68128287
_cell_angle_alpha   90.00000000
_cell_angle_beta   93.66151225
_cell_angle_gamma   90.00000000
_symmetry_Int_Tables_number   1
_chemical_formula_structural   Mo12HS24
_chemical_formula_sum   'Mo12 H1 S24'
_cell_volume   1939.95071504
_cell_formula_units_Z   1
loop_
 _symmetry_equiv_pos_site_id
 _symmetry_equiv_pos_as_xyz
  1  'x, y, z'
loop_
 _atom_site_type_symbol
 _atom_site_label
 _atom_site_symmetry_multiplicity
 _atom_site_fract_x
 _atom_site_fract_y
 _atom_site_fract_z
 _atom_site_occupancy
  Mo  Mo0  1  0.34212400  0.25000000  0.37044000  1
  Mo  Mo1  1  0.84212400  0.25000000  0.37044000  1
  Mo  Mo2  1  0.10232000  0.75000000  0.40733800  1
  Mo  Mo3  1  0.60232000  0.75000000  0.40733800  1
  Mo  Mo4  1  0.11987845  0.24999808  0.48143238  1
  Mo  Mo5  1  0.61987657  0.24999781  0.48142275  1
  Mo  Mo6  1  0.37926681  0.74999883  0.52053457  1
  Mo  Mo7  1  0.88209023  0.74999876  0.52052519  1
  Mo  Mo8  1  0.39813334  0.24999920  0.59442152  1
  Mo  Mo9  1  0.89813084  0.25000013  0.59442158  1
  Mo  Mo10  1  0.15765086  0.74998974  0.62798603  1
  Mo  Mo11  1  0.65779425  0.74998767  0.62866422  1
  S  S12  1  0.10138600  0.37552900  0.40747300  1
  S  S13  1  0.60138600  0.37552900  0.40747300  1
  S  S14  1  0.34305100  0.87552500  0.37029900  1
  S  S15  1  0.84305100  0.87552500  0.37029900  1
  S  S16  1  0.10138600  0.12447100  0.40747300  1
  S  S17  1  0.60138600  0.12447100  0.40747300  1
  S  S18  1  0.34305100  0.62447500  0.37029900  1
  S  S19  1  0.84305100  0.62447500  0.37029900  1
  S  S20  1  0.37942627  0.37455709  0.51950066  1
  S  S21  1  0.87936185  0.37455788  0.51950061  1
  S  S22  1  0.12113244  0.87459004  0.48240168  1
  S  S23  1  0.62116781  0.87349054  0.48257177  1
  S  S24  1  0.37942597  0.12544173  0.51950199  1
  S  S25  1  0.87936272  0.12544128  0.51950238  1
  S  S26  1  0.12113207  0.62540777  0.48240163  1
  S  S27  1  0.62116745  0.62650726  0.48257133  1
  S  S28  1  0.15745648  0.37371787  0.63177730  1
  S  S29  1  0.65749166  0.37360531  0.63191867  1
  S  S30  1  0.40081468  0.87647606  0.59654612  1
  S  S31  1  0.89866197  0.87646590  0.59654403  1
  S  S32  1  0.15745483  0.12627433  0.63177588  1
  S  S33  1  0.65748890  0.12638689  0.63191669  1
  S  S34  1  0.40081159  0.62350558  0.59654286  1
  S  S35  1  0.89866275  0.62351546  0.59654086  1
  H  H36  1  0.67543880  0.74999326  0.69962879  1
