# generated using pymatgen
data_Mo12HS24
_symmetry_space_group_name_H-M   'P 1'
_cell_length_a   6.31973600
_cell_length_b   12.46268000
_cell_length_c   24.68128287
_cell_angle_alpha   90.00000000
_cell_angle_beta   93.66151225
_cell_angle_gamma   90.00000000
_symmetry_Int_Tables_number   1
_chemical_formula_structural   Mo12HS24
_chemical_formula_sum   'Mo12 H1 S24'
_cell_volume   1939.95071504
_cell_formula_units_Z   1
loop_
 _symmetry_equiv_pos_site_id
 _symmetry_equiv_pos_as_xyz
  1  'x, y, z'
loop_
 _atom_site_type_symbol
 _atom_site_label
 _atom_site_symmetry_multiplicity
 _atom_site_fract_x
 _atom_site_fract_y
 _atom_site_fract_z
 _atom_site_occupancy
  Mo  Mo0  1  0.34212400  0.25000000  0.37044000  1
  Mo  Mo1  1  0.84212400  0.25000000  0.37044000  1
  Mo  Mo2  1  0.10232000  0.75000000  0.40733800  1
  Mo  Mo3  1  0.60232000  0.75000000  0.40733800  1
  Mo  Mo4  1  0.11969128  0.24999990  0.48174309  1
  Mo  Mo5  1  0.62025899  0.25000146  0.48174337  1
  Mo  Mo6  1  0.38051675  0.74999614  0.51998047  1
  Mo  Mo7  1  0.88072264  0.74999882  0.52072004  1
  Mo  Mo8  1  0.39828881  0.25000505  0.59521482  1
  Mo  Mo9  1  0.89830399  0.25001356  0.59524161  1
  Mo  Mo10  1  0.18921671  0.74999197  0.62716299  1
  Mo  Mo11  1  0.62571945  0.74998909  0.62716418  1
  S  S12  1  0.10138600  0.37552900  0.40747300  1
  S  S13  1  0.60138600  0.37552900  0.40747300  1
  S  S14  1  0.34305100  0.87552500  0.37029900  1
  S  S15  1  0.84305100  0.87552500  0.37029900  1
  S  S16  1  0.10138600  0.12447100  0.40747300  1
  S  S17  1  0.60138600  0.12447100  0.40747300  1
  S  S18  1  0.34305100  0.62447500  0.37029900  1
  S  S19  1  0.84305100  0.62447500  0.37029900  1
  S  S20  1  0.37948379  0.37411381  0.51977836  1
  S  S21  1  0.87954031  0.37439201  0.52000345  1
  S  S22  1  0.11874843  0.87412020  0.48242363  1
  S  S23  1  0.62348201  0.87411360  0.48242386  1
  S  S24  1  0.37948608  0.12589225  0.51978122  1
  S  S25  1  0.87954001  0.12561771  0.52000949  1
  S  S26  1  0.11874472  0.62587493  0.48242272  1
  S  S27  1  0.62348445  0.62588203  0.48242309  1
  S  S28  1  0.15803986  0.37388266  0.63264376  1
  S  S29  1  0.65723955  0.37387714  0.63264936  1
  S  S30  1  0.39846634  0.88381894  0.59128522  1
  S  S31  1  0.90053551  0.87103751  0.59959644  1
  S  S32  1  0.15803945  0.12613179  0.63264387  1
  S  S33  1  0.65723632  0.12613776  0.63264967  1
  S  S34  1  0.39846082  0.61616184  0.59128285  1
  S  S35  1  0.90053681  0.62894687  0.59959231  1
  H  H36  1  0.42079207  0.74997772  0.68064109  1
