# generated using pymatgen
data_Mo12HS24
_symmetry_space_group_name_H-M   'P 1'
_cell_length_a   6.31973600
_cell_length_b   12.46268000
_cell_length_c   24.68128287
_cell_angle_alpha   90.00000000
_cell_angle_beta   93.66151225
_cell_angle_gamma   90.00000000
_symmetry_Int_Tables_number   1
_chemical_formula_structural   Mo12HS24
_chemical_formula_sum   'Mo12 H1 S24'
_cell_volume   1939.95071504
_cell_formula_units_Z   1
loop_
 _symmetry_equiv_pos_site_id
 _symmetry_equiv_pos_as_xyz
  1  'x, y, z'
loop_
 _atom_site_type_symbol
 _atom_site_label
 _atom_site_symmetry_multiplicity
 _atom_site_fract_x
 _atom_site_fract_y
 _atom_site_fract_z
 _atom_site_occupancy
  Mo  Mo0  1  0.34212400  0.25000000  0.37044000  1
  Mo  Mo1  1  0.84212400  0.25000000  0.37044000  1
  Mo  Mo2  1  0.10232000  0.75000000  0.40733800  1
  Mo  Mo3  1  0.60232000  0.75000000  0.40733800  1
  Mo  Mo4  1  0.12119058  0.24999666  0.48170272  1
  Mo  Mo5  1  0.61870789  0.24999673  0.48170565  1
  Mo  Mo6  1  0.38067765  0.74999734  0.52060914  1
  Mo  Mo7  1  0.88065921  0.74999867  0.52054514  1
  Mo  Mo8  1  0.39866764  0.24999612  0.59659869  1
  Mo  Mo9  1  0.89846232  0.24999837  0.59577780  1
  Mo  Mo10  1  0.15716207  0.74998969  0.62674772  1
  Mo  Mo11  1  0.65749478  0.74998915  0.62674946  1
  S  S12  1  0.10138600  0.37552900  0.40747300  1
  S  S13  1  0.60138600  0.37552900  0.40747300  1
  S  S14  1  0.34305100  0.87552500  0.37029900  1
  S  S15  1  0.84305100  0.87552500  0.37029900  1
  S  S16  1  0.10138600  0.12447100  0.40747300  1
  S  S17  1  0.60138600  0.12447100  0.40747300  1
  S  S18  1  0.34305100  0.62447500  0.37029900  1
  S  S19  1  0.84305100  0.62447500  0.37029900  1
  S  S20  1  0.37968188  0.37465987  0.52065962  1
  S  S21  1  0.87939449  0.37336938  0.51949883  1
  S  S22  1  0.12114779  0.87411711  0.48239909  1
  S  S23  1  0.62106783  0.87411785  0.48239894  1
  S  S24  1  0.37968177  0.12533298  0.52066076  1
  S  S25  1  0.87939469  0.12662625  0.51949998  1
  S  S26  1  0.12114589  0.62587957  0.48239836  1
  S  S27  1  0.62106829  0.62587880  0.48239824  1
  S  S28  1  0.15105803  0.37476698  0.63347921  1
  S  S29  1  0.66471336  0.37476782  0.63348181  1
  S  S30  1  0.39933676  0.87681242  0.59495323  1
  S  S31  1  0.89930452  0.87688179  0.59485069  1
  S  S32  1  0.15105283  0.12521652  0.63347817  1
  S  S33  1  0.66471517  0.12522055  0.63348212  1
  S  S34  1  0.39932702  0.62316874  0.59495005  1
  S  S35  1  0.89929925  0.62310408  0.59484591  1
  H  H36  1  0.41609788  0.24999593  0.66649825  1
