# generated using pymatgen
data_Fe2Mo6S8N
_symmetry_space_group_name_H-M   'P 1'
_cell_length_a   6.48394610
_cell_length_b   6.41202525
_cell_length_c   27.90841600
_cell_angle_alpha   93.69337570
_cell_angle_beta   94.75362703
_cell_angle_gamma   97.43854579
_symmetry_Int_Tables_number   1
_chemical_formula_structural   Fe2Mo6S8N
_chemical_formula_sum   'Fe4 Mo12 S16 N2'
_cell_volume   1143.25638445
_cell_formula_units_Z   2
loop_
 _symmetry_equiv_pos_site_id
 _symmetry_equiv_pos_as_xyz
  1  'x, y, z'
loop_
 _atom_site_type_symbol
 _atom_site_label
 _atom_site_symmetry_multiplicity
 _atom_site_fract_x
 _atom_site_fract_y
 _atom_site_fract_z
 _atom_site_occupancy
  Fe  Fe0  1  0.93246987  0.15571910  0.46237272  1
  Fe  Fe1  1  0.87411942  0.12643189  0.68157310  1
  Fe  Fe2  1  0.06524100  0.84263700  0.26375600  1
  Fe  Fe3  1  0.04514465  0.83172240  0.49852528  1
  Mo  Mo4  1  0.21933426  0.53910518  0.34305096  1
  Mo  Mo5  1  0.19389832  0.53219231  0.57455917  1
  Mo  Mo6  1  0.78013528  0.45980876  0.38737930  1
  Mo  Mo7  1  0.75458084  0.44391754  0.61786108  1
  Mo  Mo8  1  0.40691667  0.21760595  0.37459850  1
  Mo  Mo9  1  0.37958102  0.20874365  0.60621908  1
  Mo  Mo10  1  0.59242725  0.78223480  0.35558042  1
  Mo  Mo11  1  0.56920015  0.77064971  0.58698574  1
  Mo  Mo12  1  0.54135300  0.40905600  0.30082200  1
  Mo  Mo13  1  0.51898759  0.39949566  0.53094054  1
  Mo  Mo14  1  0.45435736  0.59054737  0.43047956  1
  Mo  Mo15  1  0.43326529  0.57822089  0.65944849  1
  S  S16  1  0.13073624  0.36102713  0.41609944  1
  S  S17  1  0.10622554  0.35369865  0.64875367  1
  S  S18  1  0.86842500  0.63937200  0.31349000  1
  S  S19  1  0.84454147  0.62929832  0.54549222  1
  S  S20  1  0.72301900  0.14241800  0.33608800  1
  S  S21  1  0.69480768  0.12921397  0.56606562  1
  S  S22  1  0.27707134  0.85747678  0.39448117  1
  S  S23  1  0.25513411  0.84959342  0.62778863  1
  S  S24  1  0.38478400  0.73178900  0.28021200  1
  S  S25  1  0.36408838  0.72338870  0.51092594  1
  S  S26  1  0.61217885  0.26759659  0.45077713  1
  S  S27  1  0.57823207  0.26972917  0.68391633  1
  S  S28  1  0.20162900  0.19284800  0.29629700  1
  S  S29  1  0.17536055  0.18794148  0.52643523  1
  S  S30  1  0.79698766  0.80410179  0.43523953  1
  S  S31  1  0.77743763  0.77760969  0.66610671  1
  N  N32  1  0.94104878  0.13751604  0.74777662  1
  N  N33  1  0.93712742  0.13199871  0.78820054  1
