# generated using pymatgen
data_Cu4Mo12C(S8O)2
_symmetry_space_group_name_H-M   'P 1'
_cell_length_a   6.46503600
_cell_length_b   6.38873881
_cell_length_c   27.95633100
_cell_angle_alpha   92.75453660
_cell_angle_beta   96.62629410
_cell_angle_gamma   95.95021841
_symmetry_Int_Tables_number   1
_chemical_formula_structural   Cu4Mo12C(S8O)2
_chemical_formula_sum   'Cu4 Mo12 C1 S16 O2'
_cell_volume   1138.69222190
_cell_formula_units_Z   1
loop_
 _symmetry_equiv_pos_site_id
 _symmetry_equiv_pos_as_xyz
  1  'x, y, z'
loop_
 _atom_site_type_symbol
 _atom_site_label
 _atom_site_symmetry_multiplicity
 _atom_site_fract_x
 _atom_site_fract_y
 _atom_site_fract_z
 _atom_site_occupancy
  Cu  Cu0  1  0.93475543  0.15790535  0.45991651  1
  Cu  Cu1  1  0.96192906  0.03307386  0.63102772  1
  Cu  Cu2  1  0.05968000  0.84039500  0.27086500  1
  Cu  Cu3  1  0.04586481  0.83470295  0.50303802  1
  Mo  Mo4  1  0.21521500  0.54428600  0.34262100  1
  Mo  Mo5  1  0.19761365  0.53436190  0.57509105  1
  Mo  Mo6  1  0.78129064  0.45569863  0.38861659  1
  Mo  Mo7  1  0.76190608  0.44325782  0.62004045  1
  Mo  Mo8  1  0.40500088  0.21628654  0.37491418  1
  Mo  Mo9  1  0.39053287  0.21179874  0.60749181  1
  Mo  Mo10  1  0.59495600  0.78352200  0.35564700  1
  Mo  Mo11  1  0.57392994  0.77162640  0.58650496  1
  Mo  Mo12  1  0.53596300  0.40601700  0.30007200  1
  Mo  Mo13  1  0.52059431  0.40119119  0.53044029  1
  Mo  Mo14  1  0.45988054  0.59164868  0.43170820  1
  Mo  Mo15  1  0.44901499  0.57601192  0.65986827  1
  S  S16  1  0.13880139  0.36587579  0.41619460  1
  S  S17  1  0.11811796  0.36857625  0.65045428  1
  S  S18  1  0.85836300  0.62855700  0.31503700  1
  S  S19  1  0.84226484  0.62571029  0.54630748  1
  S  S20  1  0.72038700  0.13919400  0.33837300  1
  S  S21  1  0.69993856  0.12583735  0.56754978  1
  S  S22  1  0.27764718  0.86016782  0.39327987  1
  S  S23  1  0.26383600  0.85320713  0.62722459  1
  S  S24  1  0.38464800  0.73460900  0.27877900  1
  S  S25  1  0.36656931  0.72628814  0.50969531  1
  S  S26  1  0.61161644  0.26424426  0.45233225  1
  S  S27  1  0.60861498  0.27147677  0.68565275  1
  S  S28  1  0.19156400  0.20303200  0.29614100  1
  S  S29  1  0.17837844  0.19742192  0.52743665  1
  S  S30  1  0.80330110  0.79675252  0.43545449  1
  S  S31  1  0.79169110  0.77363827  0.66880500  1
  C  C32  1  0.96070479  0.13256536  0.77123885  1
  O  O33  1  0.05305303  0.29281246  0.76379045  1
  O  O34  1  0.87104521  0.97204746  0.77963158  1
