# generated using pymatgen
data_Fe4Mo12CS16O
_symmetry_space_group_name_H-M   'P 1'
_cell_length_a   6.48394610
_cell_length_b   6.41202525
_cell_length_c   27.90841600
_cell_angle_alpha   93.69337570
_cell_angle_beta   94.75362703
_cell_angle_gamma   97.43854579
_symmetry_Int_Tables_number   1
_chemical_formula_structural   Fe4Mo12CS16O
_chemical_formula_sum   'Fe4 Mo12 C1 S16 O1'
_cell_volume   1143.25638445
_cell_formula_units_Z   1
loop_
 _symmetry_equiv_pos_site_id
 _symmetry_equiv_pos_as_xyz
  1  'x, y, z'
loop_
 _atom_site_type_symbol
 _atom_site_label
 _atom_site_symmetry_multiplicity
 _atom_site_fract_x
 _atom_site_fract_y
 _atom_site_fract_z
 _atom_site_occupancy
  Fe  Fe0  1  0.93373449  0.15334582  0.46839012  1
  Fe  Fe1  1  0.86636358  0.09983850  0.65581247  1
  Fe  Fe2  1  0.06524100  0.84263700  0.26375600  1
  Fe  Fe3  1  0.06243784  0.83437427  0.49435856  1
  Mo  Mo4  1  0.22164267  0.53765908  0.34408357  1
  Mo  Mo5  1  0.21294625  0.53126435  0.57661307  1
  Mo  Mo6  1  0.77897978  0.45959447  0.38761716  1
  Mo  Mo7  1  0.77422466  0.44959600  0.61853219  1
  Mo  Mo8  1  0.40679914  0.21712517  0.37510403  1
  Mo  Mo9  1  0.39985472  0.20743421  0.60786605  1
  Mo  Mo10  1  0.59228074  0.78190704  0.35587764  1
  Mo  Mo11  1  0.58644334  0.77079624  0.58827631  1
  Mo  Mo12  1  0.54135300  0.40905600  0.30082200  1
  Mo  Mo13  1  0.53596954  0.40274109  0.53269031  1
  Mo  Mo14  1  0.45573628  0.58911286  0.43105706  1
  Mo  Mo15  1  0.45382732  0.57656346  0.66422334  1
  S  S16  1  0.12974593  0.35669653  0.41781689  1
  S  S17  1  0.12680480  0.35453302  0.64951538  1
  S  S18  1  0.86842500  0.63937200  0.31349000  1
  S  S19  1  0.86397354  0.63556971  0.54561750  1
  S  S20  1  0.72301900  0.14241800  0.33608800  1
  S  S21  1  0.71640393  0.12711967  0.56552406  1
  S  S22  1  0.27554353  0.85651448  0.39547167  1
  S  S23  1  0.27609829  0.84784088  0.62935680  1
  S  S24  1  0.38478400  0.73178900  0.28021200  1
  S  S25  1  0.37855512  0.72348711  0.51268099  1
  S  S26  1  0.61450276  0.26707712  0.45120717  1
  S  S27  1  0.61022882  0.26506297  0.68596608  1
  S  S28  1  0.20162900  0.19284800  0.29629700  1
  S  S29  1  0.19746246  0.18587443  0.52846384  1
  S  S30  1  0.79410612  0.80645495  0.43546899  1
  S  S31  1  0.80432037  0.76685182  0.67082517  1
  O  O32  1  0.41818983  0.64092153  0.77821973  1
  C  C33  1  0.42650848  0.63155416  0.73686322  1
