# generated using pymatgen
data_Cu4Mo12CS16O
_symmetry_space_group_name_H-M   'P 1'
_cell_length_a   6.46503600
_cell_length_b   6.38873881
_cell_length_c   27.95633100
_cell_angle_alpha   92.75453660
_cell_angle_beta   96.62629410
_cell_angle_gamma   95.95021841
_symmetry_Int_Tables_number   1
_chemical_formula_structural   Cu4Mo12CS16O
_chemical_formula_sum   'Cu4 Mo12 C1 S16 O1'
_cell_volume   1138.69222190
_cell_formula_units_Z   1
loop_
 _symmetry_equiv_pos_site_id
 _symmetry_equiv_pos_as_xyz
  1  'x, y, z'
loop_
 _atom_site_type_symbol
 _atom_site_label
 _atom_site_symmetry_multiplicity
 _atom_site_fract_x
 _atom_site_fract_y
 _atom_site_fract_z
 _atom_site_occupancy
  Cu  Cu0  1  0.93959419  0.16348761  0.46058161  1
  Cu  Cu1  1  0.92562229  0.14247038  0.69033226  1
  Cu  Cu2  1  0.05968000  0.84039500  0.27086500  1
  Cu  Cu3  1  0.05401376  0.84123378  0.50315986  1
  Mo  Mo4  1  0.21521500  0.54428600  0.34262100  1
  Mo  Mo5  1  0.20886619  0.54291030  0.57538804  1
  Mo  Mo6  1  0.78635784  0.45624523  0.38875033  1
  Mo  Mo7  1  0.77587708  0.45235485  0.61975147  1
  Mo  Mo8  1  0.40643774  0.21755704  0.37494870  1
  Mo  Mo9  1  0.40199677  0.21849926  0.60762899  1
  Mo  Mo10  1  0.59495600  0.78352200  0.35564700  1
  Mo  Mo11  1  0.58610201  0.78284496  0.58669434  1
  Mo  Mo12  1  0.53596300  0.40601700  0.30007200  1
  Mo  Mo13  1  0.53016187  0.40584593  0.53035952  1
  Mo  Mo14  1  0.46413330  0.59479938  0.43215689  1
  Mo  Mo15  1  0.46485346  0.58988516  0.66024324  1
  S  S16  1  0.14297556  0.36957923  0.41664536  1
  S  S17  1  0.13732794  0.36952300  0.65049891  1
  S  S18  1  0.85836300  0.62855700  0.31503700  1
  S  S19  1  0.85207470  0.63060606  0.54626286  1
  S  S20  1  0.72038700  0.13919400  0.33837300  1
  S  S21  1  0.71406221  0.13798962  0.56919441  1
  S  S22  1  0.27924994  0.86111902  0.39309128  1
  S  S23  1  0.27566421  0.86191937  0.62722354  1
  S  S24  1  0.38464800  0.73460900  0.27877900  1
  S  S25  1  0.37602511  0.73289808  0.51013383  1
  S  S26  1  0.61462349  0.26593480  0.45237733  1
  S  S27  1  0.60768371  0.27556189  0.68612398  1
  S  S28  1  0.19156400  0.20303200  0.29614100  1
  S  S29  1  0.18593010  0.20260546  0.52803718  1
  S  S30  1  0.80883884  0.79792026  0.43548107  1
  S  S31  1  0.80309463  0.79518382  0.66488973  1
  O  O32  1  0.93375696  0.11341332  0.79563936  1
  C  C33  1  0.97421131  0.13211897  0.75709510  1
