# generated using pymatgen
data_Fe4Mo12CS16O
_symmetry_space_group_name_H-M   'P 1'
_cell_length_a   6.48394610
_cell_length_b   6.41202525
_cell_length_c   27.90841600
_cell_angle_alpha   93.69337570
_cell_angle_beta   94.75362703
_cell_angle_gamma   97.43854579
_symmetry_Int_Tables_number   1
_chemical_formula_structural   Fe4Mo12CS16O
_chemical_formula_sum   'Fe4 Mo12 C1 S16 O1'
_cell_volume   1143.25638445
_cell_formula_units_Z   1
loop_
 _symmetry_equiv_pos_site_id
 _symmetry_equiv_pos_as_xyz
  1  'x, y, z'
loop_
 _atom_site_type_symbol
 _atom_site_label
 _atom_site_symmetry_multiplicity
 _atom_site_fract_x
 _atom_site_fract_y
 _atom_site_fract_z
 _atom_site_occupancy
  Fe  Fe0  1  0.92184579  0.15601433  0.46115022  1
  Fe  Fe1  1  0.85703017  0.12029102  0.67830247  1
  Fe  Fe2  1  0.06524100  0.84263700  0.26375600  1
  Fe  Fe3  1  0.02845531  0.82754086  0.50065766  1
  Mo  Mo4  1  0.21817601  0.53864669  0.34279732  1
  Mo  Mo5  1  0.17432101  0.52442814  0.57367407  1
  Mo  Mo6  1  0.77659775  0.45935773  0.38748680  1
  Mo  Mo7  1  0.73763389  0.43581033  0.61790851  1
  Mo  Mo8  1  0.40460171  0.21649377  0.37433691  1
  Mo  Mo9  1  0.36207681  0.20121532  0.60627782  1
  Mo  Mo10  1  0.59048856  0.78190401  0.35565931  1
  Mo  Mo11  1  0.54940990  0.76249332  0.58697761  1
  Mo  Mo12  1  0.54135300  0.40905600  0.30082200  1
  Mo  Mo13  1  0.50266227  0.39218349  0.53080770  1
  Mo  Mo14  1  0.44903822  0.58882920  0.43021067  1
  Mo  Mo15  1  0.41429566  0.57117357  0.65946066  1
  S  S16  1  0.12612856  0.35804730  0.41542997  1
  S  S17  1  0.08939408  0.34801818  0.64902216  1
  S  S18  1  0.86842500  0.63937200  0.31349000  1
  S  S19  1  0.82610461  0.62173192  0.54599518  1
  S  S20  1  0.72301900  0.14241800  0.33608800  1
  S  S21  1  0.67555121  0.12134529  0.56595143  1
  S  S22  1  0.27470450  0.85694644  0.39419570  1
  S  S23  1  0.23458721  0.84161052  0.62740908  1
  S  S24  1  0.38478400  0.73178900  0.28021200  1
  S  S25  1  0.34690436  0.71616287  0.51041162  1
  S  S26  1  0.60456510  0.26668000  0.45090629  1
  S  S27  1  0.56477863  0.26364178  0.68383010  1
  S  S28  1  0.20162900  0.19284800  0.29629700  1
  S  S29  1  0.15926592  0.18142077  0.52621008  1
  S  S30  1  0.79278552  0.80233487  0.43542653  1
  S  S31  1  0.75428915  0.77296507  0.66594714  1
  O  O32  1  0.95740837  0.11913224  0.78114133  1
  C  C33  1  0.93535245  0.12410378  0.73874771  1
