# generated using pymatgen
data_Cu4Mo12C(S8O)2
_symmetry_space_group_name_H-M   'P 1'
_cell_length_a   6.46503600
_cell_length_b   6.38873881
_cell_length_c   27.95633100
_cell_angle_alpha   92.75453660
_cell_angle_beta   96.62629410
_cell_angle_gamma   95.95021841
_symmetry_Int_Tables_number   1
_chemical_formula_structural   Cu4Mo12C(S8O)2
_chemical_formula_sum   'Cu4 Mo12 C1 S16 O2'
_cell_volume   1138.69222190
_cell_formula_units_Z   1
loop_
 _symmetry_equiv_pos_site_id
 _symmetry_equiv_pos_as_xyz
  1  'x, y, z'
loop_
 _atom_site_type_symbol
 _atom_site_label
 _atom_site_symmetry_multiplicity
 _atom_site_fract_x
 _atom_site_fract_y
 _atom_site_fract_z
 _atom_site_occupancy
  Cu  Cu0  1  0.93920566  0.15920315  0.46122940  1
  Cu  Cu1  1  0.97760719  0.03927505  0.63238914  1
  Cu  Cu2  1  0.05968000  0.84039500  0.27086500  1
  Cu  Cu3  1  0.05830185  0.84105608  0.50360723  1
  Mo  Mo4  1  0.21521500  0.54428600  0.34262100  1
  Mo  Mo5  1  0.21299386  0.54308203  0.57713069  1
  Mo  Mo6  1  0.78117230  0.45603890  0.38874572  1
  Mo  Mo7  1  0.77749708  0.45575257  0.62120221  1
  Mo  Mo8  1  0.40554342  0.21771153  0.37531645  1
  Mo  Mo9  1  0.40437731  0.22159555  0.60910952  1
  Mo  Mo10  1  0.59495600  0.78352200  0.35564700  1
  Mo  Mo11  1  0.59143716  0.77637247  0.58789145  1
  Mo  Mo12  1  0.53596300  0.40601700  0.30007200  1
  Mo  Mo13  1  0.53219075  0.40660710  0.53207562  1
  Mo  Mo14  1  0.46255702  0.59378294  0.43197721  1
  Mo  Mo15  1  0.45877503  0.59513616  0.66564975  1
  S  S16  1  0.14024911  0.36867928  0.41683924  1
  S  S17  1  0.13074256  0.37562274  0.65175875  1
  S  S18  1  0.85836300  0.62855700  0.31503700  1
  S  S19  1  0.85615046  0.62941499  0.54645285  1
  S  S20  1  0.72038700  0.13919400  0.33837300  1
  S  S21  1  0.71321360  0.13258383  0.56905142  1
  S  S22  1  0.27832755  0.86055790  0.39340498  1
  S  S23  1  0.27921967  0.86216527  0.62760917  1
  S  S24  1  0.38464800  0.73460900  0.27877900  1
  S  S25  1  0.38043973  0.73212431  0.51096035  1
  S  S26  1  0.61433808  0.26559534  0.45291549  1
  S  S27  1  0.63108493  0.27488079  0.68359745  1
  S  S28  1  0.19156400  0.20303200  0.29614100  1
  S  S29  1  0.18812828  0.20462784  0.52906738  1
  S  S30  1  0.80780766  0.79745798  0.43552098  1
  S  S31  1  0.80937344  0.78486709  0.67080238  1
  C  C32  1  0.43617001  0.53694971  0.74300059  1
  O  O33  1  0.41983399  0.73070050  0.73952358  1
  O  O34  1  0.42563952  0.41229629  0.77457920  1
