# generated using pymatgen
data_Cu4Mo12HCS16O
_symmetry_space_group_name_H-M   'P 1'
_cell_length_a   6.46503600
_cell_length_b   6.38873881
_cell_length_c   27.95633100
_cell_angle_alpha   92.75453660
_cell_angle_beta   96.62629410
_cell_angle_gamma   95.95021841
_symmetry_Int_Tables_number   1
_chemical_formula_structural   Cu4Mo12HCS16O
_chemical_formula_sum   'Cu4 Mo12 H1 C1 S16 O1'
_cell_volume   1138.69222190
_cell_formula_units_Z   1
loop_
 _symmetry_equiv_pos_site_id
 _symmetry_equiv_pos_as_xyz
  1  'x, y, z'
loop_
 _atom_site_type_symbol
 _atom_site_label
 _atom_site_symmetry_multiplicity
 _atom_site_fract_x
 _atom_site_fract_y
 _atom_site_fract_z
 _atom_site_occupancy
  Cu  Cu0  1  0.93704272  0.15330475  0.46076440  1
  Cu  Cu1  1  0.95863894  0.00966037  0.62927018  1
  Cu  Cu2  1  0.05968000  0.84039500  0.27086500  1
  Cu  Cu3  1  0.04763700  0.83095078  0.50372952  1
  Mo  Mo4  1  0.21521500  0.54428600  0.34262100  1
  Mo  Mo5  1  0.20249376  0.52807480  0.57641880  1
  Mo  Mo6  1  0.77750428  0.45471725  0.38885288  1
  Mo  Mo7  1  0.77088152  0.43143079  0.62072212  1
  Mo  Mo8  1  0.40438232  0.21673109  0.37518042  1
  Mo  Mo9  1  0.39867478  0.20555173  0.60952406  1
  Mo  Mo10  1  0.59495600  0.78352200  0.35564700  1
  Mo  Mo11  1  0.57679143  0.75695780  0.58890060  1
  Mo  Mo12  1  0.53596300  0.40601700  0.30007200  1
  Mo  Mo13  1  0.52401310  0.39226252  0.53283850  1
  Mo  Mo14  1  0.45913204  0.59022838  0.43153765  1
  Mo  Mo15  1  0.43771556  0.57454311  0.67042550  1
  S  S16  1  0.13691905  0.36547867  0.41652365  1
  S  S17  1  0.12212637  0.34382218  0.64841507  1
  S  S18  1  0.85836300  0.62855700  0.31503700  1
  S  S19  1  0.84684927  0.61621781  0.54734670  1
  S  S20  1  0.72038700  0.13919400  0.33837300  1
  S  S21  1  0.70094322  0.11029396  0.56751647  1
  S  S22  1  0.27760400  0.85964104  0.39369511  1
  S  S23  1  0.27132841  0.84637690  0.62868908  1
  S  S24  1  0.38464800  0.73460900  0.27877900  1
  S  S25  1  0.36928875  0.71769253  0.51114342  1
  S  S26  1  0.61255839  0.26217527  0.45291802  1
  S  S27  1  0.62125972  0.26214455  0.68637741  1
  S  S28  1  0.19156400  0.20303200  0.29614100  1
  S  S29  1  0.18064511  0.19039022  0.52940862  1
  S  S30  1  0.80342163  0.79422123  0.43594277  1
  S  S31  1  0.79644147  0.75693105  0.66915580  1
  C  C32  1  0.28284094  0.60255864  0.72952780  1
  H  H33  1  0.54074295  0.65695151  0.77642593  1
  O  O34  1  0.46986183  0.71734888  0.74741406  1
