# generated using pymatgen
data_Fe4Mo12HS16
_symmetry_space_group_name_H-M   'P 1'
_cell_length_a   6.48394610
_cell_length_b   6.41202525
_cell_length_c   27.90841600
_cell_angle_alpha   93.69337570
_cell_angle_beta   94.75362703
_cell_angle_gamma   97.43854579
_symmetry_Int_Tables_number   1
_chemical_formula_structural   Fe4Mo12HS16
_chemical_formula_sum   'Fe4 Mo12 H1 S16'
_cell_volume   1143.25638445
_cell_formula_units_Z   1
loop_
 _symmetry_equiv_pos_site_id
 _symmetry_equiv_pos_as_xyz
  1  'x, y, z'
loop_
 _atom_site_type_symbol
 _atom_site_label
 _atom_site_symmetry_multiplicity
 _atom_site_fract_x
 _atom_site_fract_y
 _atom_site_fract_z
 _atom_site_occupancy
  Fe  Fe0  1  0.93271107  0.15258398  0.46543735  1
  Fe  Fe1  1  0.83098693  0.09111998  0.64464722  1
  Fe  Fe2  1  0.06524100  0.84263700  0.26375600  1
  Fe  Fe3  1  0.04949805  0.83238180  0.49696359  1
  Mo  Mo4  1  0.21946641  0.53882235  0.34344266  1
  Mo  Mo5  1  0.19921793  0.52750905  0.57592251  1
  Mo  Mo6  1  0.77969741  0.45890419  0.38763893  1
  Mo  Mo7  1  0.76114200  0.45061764  0.61805132  1
  Mo  Mo8  1  0.40646916  0.21740915  0.37482119  1
  Mo  Mo9  1  0.38950075  0.20222198  0.60730209  1
  Mo  Mo10  1  0.59178482  0.78094540  0.35586060  1
  Mo  Mo11  1  0.57116610  0.77036479  0.58751409  1
  Mo  Mo12  1  0.54135300  0.40905600  0.30082200  1
  Mo  Mo13  1  0.52472406  0.40157312  0.53219345  1
  Mo  Mo14  1  0.45351034  0.58882618  0.43045864  1
  Mo  Mo15  1  0.43860715  0.57212397  0.66213247  1
  S  S16  1  0.12895545  0.35678927  0.41668707  1
  S  S17  1  0.11079000  0.34476967  0.64851301  1
  S  S18  1  0.86842500  0.63937200  0.31349000  1
  S  S19  1  0.85018403  0.63543562  0.54583797  1
  S  S20  1  0.72301900  0.14241800  0.33608800  1
  S  S21  1  0.70543871  0.12421701  0.56472635  1
  S  S22  1  0.27611563  0.85709961  0.39494900  1
  S  S23  1  0.26060253  0.84435578  0.62910167  1
  S  S24  1  0.38478400  0.73178900  0.28021200  1
  S  S25  1  0.36548238  0.71968116  0.51161642  1
  S  S26  1  0.61256691  0.26662392  0.45121709  1
  S  S27  1  0.60207064  0.26496365  0.68566000  1
  S  S28  1  0.20162900  0.19284800  0.29629700  1
  S  S29  1  0.18527520  0.18449019  0.52768314  1
  S  S30  1  0.79400743  0.80319288  0.43543063  1
  S  S31  1  0.78448698  0.77035520  0.66986478  1
  H  H32  1  0.40193400  0.64259047  0.72386999  1
