# generated using pymatgen
data_Cu4Mo12H3S16N
_symmetry_space_group_name_H-M   'P 1'
_cell_length_a   6.46503600
_cell_length_b   6.38873881
_cell_length_c   27.95633100
_cell_angle_alpha   92.75453660
_cell_angle_beta   96.62629410
_cell_angle_gamma   95.95021841
_symmetry_Int_Tables_number   1
_chemical_formula_structural   Cu4Mo12H3S16N
_chemical_formula_sum   'Cu4 Mo12 H3 S16 N1'
_cell_volume   1138.69222190
_cell_formula_units_Z   1
loop_
 _symmetry_equiv_pos_site_id
 _symmetry_equiv_pos_as_xyz
  1  'x, y, z'
loop_
 _atom_site_type_symbol
 _atom_site_label
 _atom_site_symmetry_multiplicity
 _atom_site_fract_x
 _atom_site_fract_y
 _atom_site_fract_z
 _atom_site_occupancy
  Cu  Cu0  1  0.94329378  0.15804631  0.46069091  1
  Cu  Cu1  1  0.90768184  0.06968552  0.64905299  1
  Cu  Cu2  1  0.05968000  0.84039500  0.27086500  1
  Cu  Cu3  1  0.06118029  0.83497218  0.50342051  1
  Mo  Mo4  1  0.21521500  0.54428600  0.34262100  1
  Mo  Mo5  1  0.21696346  0.53264387  0.57712231  1
  Mo  Mo6  1  0.78621873  0.45618999  0.38874850  1
  Mo  Mo7  1  0.78926493  0.44000914  0.61959458  1
  Mo  Mo8  1  0.40686601  0.21738142  0.37507259  1
  Mo  Mo9  1  0.41379743  0.20499939  0.60780139  1
  Mo  Mo10  1  0.59495600  0.78352200  0.35564700  1
  Mo  Mo11  1  0.59558711  0.77222678  0.58893438  1
  Mo  Mo12  1  0.53596300  0.40601700  0.30007200  1
  Mo  Mo13  1  0.53677760  0.40061579  0.53097575  1
  Mo  Mo14  1  0.46539337  0.59416973  0.43237964  1
  Mo  Mo15  1  0.47825250  0.56886157  0.66383168  1
  S  S16  1  0.14363175  0.36932141  0.41690385  1
  S  S17  1  0.14556057  0.35767802  0.65040064  1
  S  S18  1  0.85836300  0.62855700  0.31503700  1
  S  S19  1  0.86113804  0.62410442  0.54717073  1
  S  S20  1  0.72038700  0.13919400  0.33837300  1
  S  S21  1  0.72203910  0.12480942  0.56695873  1
  S  S22  1  0.28008506  0.86042710  0.39354556  1
  S  S23  1  0.29376367  0.84797306  0.63025028  1
  S  S24  1  0.38464800  0.73460900  0.27877900  1
  S  S25  1  0.38463426  0.72721060  0.51211515  1
  S  S26  1  0.61723975  0.26454052  0.45226547  1
  S  S27  1  0.63679510  0.25290187  0.68491873  1
  S  S28  1  0.19156400  0.20303200  0.29614100  1
  S  S29  1  0.19285584  0.19760916  0.52818825  1
  S  S30  1  0.81068023  0.79652240  0.43582086  1
  S  S31  1  0.82498544  0.75580766  0.67185629  1
  N  N32  1  0.45608996  0.63672597  0.74277403  1
  H  H33  1  0.60180094  0.67858132  0.76183086  1
  H  H34  1  0.36571464  0.75504147  0.74996211  1
  H  H35  1  0.39296404  0.50422183  0.75780236  1
