# generated using pymatgen
data_Cu4Mo12CS16O
_symmetry_space_group_name_H-M   'P 1'
_cell_length_a   6.46503600
_cell_length_b   6.38873881
_cell_length_c   27.95633100
_cell_angle_alpha   92.75453660
_cell_angle_beta   96.62629410
_cell_angle_gamma   95.95021841
_symmetry_Int_Tables_number   1
_chemical_formula_structural   Cu4Mo12CS16O
_chemical_formula_sum   'Cu4 Mo12 C1 S16 O1'
_cell_volume   1138.69222190
_cell_formula_units_Z   1
loop_
 _symmetry_equiv_pos_site_id
 _symmetry_equiv_pos_as_xyz
  1  'x, y, z'
loop_
 _atom_site_type_symbol
 _atom_site_label
 _atom_site_symmetry_multiplicity
 _atom_site_fract_x
 _atom_site_fract_y
 _atom_site_fract_z
 _atom_site_occupancy
  Cu  Cu0  1  0.94035641  0.16269462  0.46061592  1
  Cu  Cu1  1  0.89842940  0.08576546  0.65336723  1
  Cu  Cu2  1  0.05968000  0.84039500  0.27086500  1
  Cu  Cu3  1  0.05862237  0.84229689  0.50340552  1
  Mo  Mo4  1  0.21521500  0.54428600  0.34262100  1
  Mo  Mo5  1  0.21259652  0.54188248  0.57672308  1
  Mo  Mo6  1  0.78549878  0.45686484  0.38879630  1
  Mo  Mo7  1  0.78309125  0.45055771  0.61959852  1
  Mo  Mo8  1  0.40694871  0.21882483  0.37520935  1
  Mo  Mo9  1  0.40811471  0.21508886  0.60780994  1
  Mo  Mo10  1  0.59495600  0.78352200  0.35564700  1
  Mo  Mo11  1  0.59117041  0.78092877  0.58885871  1
  Mo  Mo12  1  0.53596300  0.40601700  0.30007200  1
  Mo  Mo13  1  0.53281978  0.40867982  0.53129846  1
  Mo  Mo14  1  0.46420241  0.59665755  0.43232371  1
  Mo  Mo15  1  0.46814450  0.58120420  0.66501963  1
  S  S16  1  0.14308592  0.37091774  0.41689755  1
  S  S17  1  0.13913270  0.36504353  0.64972112  1
  S  S18  1  0.85836300  0.62855700  0.31503700  1
  S  S19  1  0.85652075  0.63254490  0.54691297  1
  S  S20  1  0.72038700  0.13919400  0.33837300  1
  S  S21  1  0.71772625  0.13418496  0.56734248  1
  S  S22  1  0.27884178  0.86179933  0.39324015  1
  S  S23  1  0.28608929  0.85752888  0.62939227  1
  S  S24  1  0.38464800  0.73460900  0.27877900  1
  S  S25  1  0.38190720  0.73504328  0.51149376  1
  S  S26  1  0.61563514  0.26798491  0.45268625  1
  S  S27  1  0.62767384  0.26197902  0.68468272  1
  S  S28  1  0.19156400  0.20303200  0.29614100  1
  S  S29  1  0.18883564  0.20558090  0.52817386  1
  S  S30  1  0.80977037  0.79852334  0.43558643  1
  S  S31  1  0.81820324  0.76587195  0.67173686  1
  O  O32  1  0.46479300  0.59937937  0.77929624  1
  C  C33  1  0.46320677  0.61038943  0.73797067  1
