# generated using pymatgen
data_Cu4Mo12HS16
_symmetry_space_group_name_H-M   'P 1'
_cell_length_a   6.46503600
_cell_length_b   6.38873881
_cell_length_c   27.95633100
_cell_angle_alpha   92.75453660
_cell_angle_beta   96.62629410
_cell_angle_gamma   95.95021841
_symmetry_Int_Tables_number   1
_chemical_formula_structural   Cu4Mo12HS16
_chemical_formula_sum   'Cu4 Mo12 H1 S16'
_cell_volume   1138.69222190
_cell_formula_units_Z   1
loop_
 _symmetry_equiv_pos_site_id
 _symmetry_equiv_pos_as_xyz
  1  'x, y, z'
loop_
 _atom_site_type_symbol
 _atom_site_label
 _atom_site_symmetry_multiplicity
 _atom_site_fract_x
 _atom_site_fract_y
 _atom_site_fract_z
 _atom_site_occupancy
  Cu  Cu0  1  0.93901181  0.15687753  0.46103894  1
  Cu  Cu1  1  0.93585577  0.15398330  0.69185168  1
  Cu  Cu2  1  0.05968000  0.84039500  0.27086500  1
  Cu  Cu3  1  0.05049911  0.83490052  0.50378468  1
  Mo  Mo4  1  0.21521500  0.54428600  0.34262100  1
  Mo  Mo5  1  0.20393872  0.54511500  0.57484813  1
  Mo  Mo6  1  0.77994606  0.45551224  0.38897335  1
  Mo  Mo7  1  0.78422986  0.44659103  0.62123100  1
  Mo  Mo8  1  0.40444370  0.21712504  0.37525120  1
  Mo  Mo9  1  0.40311543  0.21734343  0.60873653  1
  Mo  Mo10  1  0.59495600  0.78352200  0.35564700  1
  Mo  Mo11  1  0.58459492  0.77692111  0.58858474  1
  Mo  Mo12  1  0.53596300  0.40601700  0.30007200  1
  Mo  Mo13  1  0.52852308  0.39952412  0.53177691  1
  Mo  Mo14  1  0.45952239  0.59155961  0.43215576  1
  Mo  Mo15  1  0.46506369  0.58893977  0.66147203  1
  S  S16  1  0.13817983  0.36677476  0.41663705  1
  S  S17  1  0.14049337  0.37130456  0.65064458  1
  S  S18  1  0.85836300  0.62855700  0.31503700  1
  S  S19  1  0.84888272  0.62339245  0.54774341  1
  S  S20  1  0.72038700  0.13919400  0.33837300  1
  S  S21  1  0.71331055  0.13219672  0.57020924  1
  S  S22  1  0.27859262  0.86016394  0.39352769  1
  S  S23  1  0.27325727  0.86070210  0.62828841  1
  S  S24  1  0.38464800  0.73460900  0.27877900  1
  S  S25  1  0.37453126  0.72920844  0.51141714  1
  S  S26  1  0.61309125  0.26386089  0.45289239  1
  S  S27  1  0.61720237  0.27616488  0.68709180  1
  S  S28  1  0.19156400  0.20303200  0.29614100  1
  S  S29  1  0.18251572  0.20095797  0.52916326  1
  S  S30  1  0.80385649  0.79511517  0.43641649  1
  S  S31  1  0.80166411  0.79106692  0.66737460  1
  H  H32  1  0.10728905  0.12361418  0.73291200  1
