# generated using pymatgen
data_Cu2Mo6S8N
_symmetry_space_group_name_H-M   'P 1'
_cell_length_a   6.46503600
_cell_length_b   6.38873881
_cell_length_c   27.95633100
_cell_angle_alpha   92.75453660
_cell_angle_beta   96.62629410
_cell_angle_gamma   95.95021841
_symmetry_Int_Tables_number   1
_chemical_formula_structural   Cu2Mo6S8N
_chemical_formula_sum   'Cu4 Mo12 S16 N2'
_cell_volume   1138.69222190
_cell_formula_units_Z   2
loop_
 _symmetry_equiv_pos_site_id
 _symmetry_equiv_pos_as_xyz
  1  'x, y, z'
loop_
 _atom_site_type_symbol
 _atom_site_label
 _atom_site_symmetry_multiplicity
 _atom_site_fract_x
 _atom_site_fract_y
 _atom_site_fract_z
 _atom_site_occupancy
  Cu  Cu0  1  0.93945870  0.16318746  0.46075094  1
  Cu  Cu1  1  0.90643240  0.07295398  0.64482758  1
  Cu  Cu2  1  0.05968000  0.84039500  0.27086500  1
  Cu  Cu3  1  0.05346282  0.84291890  0.50372531  1
  Mo  Mo4  1  0.21521500  0.54428600  0.34262100  1
  Mo  Mo5  1  0.20674203  0.54338707  0.57675843  1
  Mo  Mo6  1  0.78533958  0.45642546  0.38883693  1
  Mo  Mo7  1  0.77396577  0.45134061  0.62016416  1
  Mo  Mo8  1  0.40654687  0.21821291  0.37514084  1
  Mo  Mo9  1  0.40032473  0.22065996  0.60833170  1
  Mo  Mo10  1  0.59495600  0.78352200  0.35564700  1
  Mo  Mo11  1  0.58244865  0.78042643  0.58828432  1
  Mo  Mo12  1  0.53596300  0.40601700  0.30007200  1
  Mo  Mo13  1  0.52835708  0.41006785  0.53098238  1
  Mo  Mo14  1  0.46362291  0.59613351  0.43234969  1
  Mo  Mo15  1  0.46179198  0.58273520  0.66168714  1
  S  S16  1  0.14249726  0.37031919  0.41679331  1
  S  S17  1  0.13049508  0.37255681  0.65134537  1
  S  S18  1  0.85836300  0.62855700  0.31503700  1
  S  S19  1  0.85084224  0.63533714  0.54724803  1
  S  S20  1  0.72038700  0.13919400  0.33837300  1
  S  S21  1  0.70906427  0.13395051  0.56761195  1
  S  S22  1  0.27898518  0.86159217  0.39313674  1
  S  S23  1  0.27658977  0.86173584  0.62938248  1
  S  S24  1  0.38464800  0.73460900  0.27877900  1
  S  S25  1  0.37554081  0.73514594  0.51097257  1
  S  S26  1  0.61424317  0.26738463  0.45273458  1
  S  S27  1  0.62049579  0.27396987  0.68590434  1
  S  S28  1  0.19156400  0.20303200  0.29614100  1
  S  S29  1  0.18409570  0.20724779  0.52851945  1
  S  S30  1  0.80875679  0.79847354  0.43550296  1
  S  S31  1  0.80533506  0.76965770  0.67197015  1
  N  N32  1  0.02706394  0.14003952  0.76510474  1
  N  N33  1  0.91462242  0.10484665  0.79149768  1
