# generated using pymatgen
data_Fe4Mo12H(S8N)2
_symmetry_space_group_name_H-M   'P 1'
_cell_length_a   6.48394610
_cell_length_b   6.41202525
_cell_length_c   27.90841600
_cell_angle_alpha   93.69337570
_cell_angle_beta   94.75362703
_cell_angle_gamma   97.43854579
_symmetry_Int_Tables_number   1
_chemical_formula_structural   Fe4Mo12H(S8N)2
_chemical_formula_sum   'Fe4 Mo12 H1 S16 N2'
_cell_volume   1143.25638445
_cell_formula_units_Z   1
loop_
 _symmetry_equiv_pos_site_id
 _symmetry_equiv_pos_as_xyz
  1  'x, y, z'
loop_
 _atom_site_type_symbol
 _atom_site_label
 _atom_site_symmetry_multiplicity
 _atom_site_fract_x
 _atom_site_fract_y
 _atom_site_fract_z
 _atom_site_occupancy
  Fe  Fe0  1  0.93234653  0.15680140  0.46474524  1
  Fe  Fe1  1  0.88660720  0.13737294  0.68571667  1
  Fe  Fe2  1  0.06524100  0.84263700  0.26375600  1
  Fe  Fe3  1  0.04888116  0.83234886  0.49696898  1
  Mo  Mo4  1  0.21906979  0.53842093  0.34308193  1
  Mo  Mo5  1  0.20040145  0.53351620  0.57428957  1
  Mo  Mo6  1  0.77989615  0.45947809  0.38746596  1
  Mo  Mo7  1  0.76221315  0.44836220  0.61786376  1
  Mo  Mo8  1  0.40641860  0.21681365  0.37455021  1
  Mo  Mo9  1  0.38935290  0.21103685  0.60653783  1
  Mo  Mo10  1  0.59214685  0.78227488  0.35558493  1
  Mo  Mo11  1  0.57580203  0.77255913  0.58664873  1
  Mo  Mo12  1  0.54135300  0.40905600  0.30082200  1
  Mo  Mo13  1  0.52570768  0.40044347  0.53097073  1
  Mo  Mo14  1  0.45394680  0.58965283  0.43033410  1
  Mo  Mo15  1  0.44119405  0.58303646  0.65955631  1
  S  S16  1  0.12975537  0.35836538  0.41639593  1
  S  S17  1  0.11384145  0.35616482  0.64823108  1
  S  S18  1  0.86842500  0.63937200  0.31349000  1
  S  S19  1  0.85080958  0.63108924  0.54499770  1
  S  S20  1  0.72301900  0.14241800  0.33608800  1
  S  S21  1  0.70316459  0.13205653  0.56631350  1
  S  S22  1  0.27560621  0.85673267  0.39444455  1
  S  S23  1  0.26086913  0.85185182  0.62731935  1
  S  S24  1  0.38478400  0.73178900  0.28021200  1
  S  S25  1  0.36857320  0.72425421  0.51089358  1
  S  S26  1  0.61217189  0.26668642  0.45051650  1
  S  S27  1  0.58812164  0.27438402  0.68433119  1
  S  S28  1  0.20162900  0.19284800  0.29629700  1
  S  S29  1  0.18458625  0.18630607  0.52697170  1
  S  S30  1  0.79478868  0.80590903  0.43512939  1
  S  S31  1  0.78118786  0.78890909  0.66534027  1
  N  N32  1  0.94299450  0.13906675  0.74642058  1
  N  N33  1  0.89727433  0.11286529  0.78666962  1
  H  H34  1  0.01358002  0.14583822  0.81520455  1
