# generated using pymatgen
data_Fe4Mo12C(S8O)2
_symmetry_space_group_name_H-M   'P 1'
_cell_length_a   6.48394610
_cell_length_b   6.41202525
_cell_length_c   27.90841600
_cell_angle_alpha   93.69337570
_cell_angle_beta   94.75362703
_cell_angle_gamma   97.43854579
_symmetry_Int_Tables_number   1
_chemical_formula_structural   Fe4Mo12C(S8O)2
_chemical_formula_sum   'Fe4 Mo12 C1 S16 O2'
_cell_volume   1143.25638445
_cell_formula_units_Z   1
loop_
 _symmetry_equiv_pos_site_id
 _symmetry_equiv_pos_as_xyz
  1  'x, y, z'
loop_
 _atom_site_type_symbol
 _atom_site_label
 _atom_site_symmetry_multiplicity
 _atom_site_fract_x
 _atom_site_fract_y
 _atom_site_fract_z
 _atom_site_occupancy
  Fe  Fe0  1  0.93071949  0.15461375  0.46332629  1
  Fe  Fe1  1  0.84565906  0.09843098  0.65409135  1
  Fe  Fe2  1  0.06524100  0.84263700  0.26375600  1
  Fe  Fe3  1  0.04362155  0.83186759  0.49774120  1
  Mo  Mo4  1  0.21882004  0.53844103  0.34300111  1
  Mo  Mo5  1  0.19134276  0.52930110  0.57506578  1
  Mo  Mo6  1  0.77874962  0.45978241  0.38738313  1
  Mo  Mo7  1  0.75036315  0.44717259  0.61733976  1
  Mo  Mo8  1  0.40599700  0.21698942  0.37453819  1
  Mo  Mo9  1  0.37715751  0.20652065  0.60645437  1
  Mo  Mo10  1  0.59143916  0.78246492  0.35556919  1
  Mo  Mo11  1  0.56357886  0.76752088  0.58672385  1
  Mo  Mo12  1  0.54135300  0.40905600  0.30082200  1
  Mo  Mo13  1  0.51543572  0.39940801  0.53093096  1
  Mo  Mo14  1  0.45251456  0.58992993  0.43030424  1
  Mo  Mo15  1  0.43250960  0.57384704  0.65985841  1
  S  S16  1  0.12881437  0.35854988  0.41608337  1
  S  S17  1  0.10423086  0.35747161  0.64897661  1
  S  S18  1  0.86842500  0.63937200  0.31349000  1
  S  S19  1  0.84160075  0.63081615  0.54505860  1
  S  S20  1  0.72301900  0.14241800  0.33608800  1
  S  S21  1  0.69013582  0.12391881  0.56469371  1
  S  S22  1  0.27498954  0.85690089  0.39432332  1
  S  S23  1  0.25281557  0.84667597  0.62821699  1
  S  S24  1  0.38478400  0.73178900  0.28021200  1
  S  S25  1  0.36006220  0.72066760  0.51076338  1
  S  S26  1  0.61042240  0.26696045  0.45081552  1
  S  S27  1  0.58566601  0.26624172  0.68487174  1
  S  S28  1  0.20162900  0.19284800  0.29629700  1
  S  S29  1  0.17392710  0.18618357  0.52701717  1
  S  S30  1  0.79416027  0.80459375  0.43510361  1
  S  S31  1  0.77778776  0.76546106  0.66970855  1
  C  C32  1  0.91759916  0.15330221  0.77839160  1
  O  O33  1  0.99429222  0.32420107  0.77231237  1
  O  O34  1  0.84064388  0.98165979  0.78363268  1
