# generated using pymatgen
data_Cu2Mo6S8N
_symmetry_space_group_name_H-M   'P 1'
_cell_length_a   6.46503600
_cell_length_b   6.38873881
_cell_length_c   27.95633100
_cell_angle_alpha   92.75453660
_cell_angle_beta   96.62629410
_cell_angle_gamma   95.95021841
_symmetry_Int_Tables_number   1
_chemical_formula_structural   Cu2Mo6S8N
_chemical_formula_sum   'Cu4 Mo12 S16 N2'
_cell_volume   1138.69222190
_cell_formula_units_Z   2
loop_
 _symmetry_equiv_pos_site_id
 _symmetry_equiv_pos_as_xyz
  1  'x, y, z'
loop_
 _atom_site_type_symbol
 _atom_site_label
 _atom_site_symmetry_multiplicity
 _atom_site_fract_x
 _atom_site_fract_y
 _atom_site_fract_z
 _atom_site_occupancy
  Cu  Cu0  1  0.94012139  0.16402957  0.46079433  1
  Cu  Cu1  1  0.91203122  0.13225458  0.68205037  1
  Cu  Cu2  1  0.05968000  0.84039500  0.27086500  1
  Cu  Cu3  1  0.05448376  0.84239951  0.50357006  1
  Mo  Mo4  1  0.21521500  0.54428600  0.34262100  1
  Mo  Mo5  1  0.20957791  0.54243934  0.57611240  1
  Mo  Mo6  1  0.78638514  0.45652743  0.38887483  1
  Mo  Mo7  1  0.77765603  0.45048916  0.61979293  1
  Mo  Mo8  1  0.40675602  0.21792073  0.37505812  1
  Mo  Mo9  1  0.40382643  0.21938234  0.60814841  1
  Mo  Mo10  1  0.59495600  0.78352200  0.35564700  1
  Mo  Mo11  1  0.58652775  0.78023250  0.58782835  1
  Mo  Mo12  1  0.53596300  0.40601700  0.30007200  1
  Mo  Mo13  1  0.53078759  0.40626148  0.53077451  1
  Mo  Mo14  1  0.46425736  0.59545048  0.43236329  1
  Mo  Mo15  1  0.46538293  0.58893611  0.66126228  1
  S  S16  1  0.14332982  0.37003210  0.41677070  1
  S  S17  1  0.13790696  0.36898396  0.65102073  1
  S  S18  1  0.85836300  0.62855700  0.31503700  1
  S  S19  1  0.85271332  0.63101469  0.54678836  1
  S  S20  1  0.72038700  0.13919400  0.33837300  1
  S  S21  1  0.71376918  0.13638781  0.56878978  1
  S  S22  1  0.27945684  0.86131287  0.39325498  1
  S  S23  1  0.27679031  0.86191336  0.62824329  1
  S  S24  1  0.38464800  0.73460900  0.27877900  1
  S  S25  1  0.37638682  0.73299073  0.51094852  1
  S  S26  1  0.61509073  0.26678260  0.45247008  1
  S  S27  1  0.60909332  0.27578521  0.68697862  1
  S  S28  1  0.19156400  0.20303200  0.29614100  1
  S  S29  1  0.18696909  0.20380977  0.52828665  1
  S  S30  1  0.80897225  0.79836409  0.43565615  1
  S  S31  1  0.80515882  0.78652653  0.66737273  1
  N  N32  1  0.99211259  0.13837646  0.75987209  1
  N  N33  1  0.92844809  0.13113074  0.79513125  1
