# generated using pymatgen
data_Cu4Mo12HC(S8O)2
_symmetry_space_group_name_H-M   'P 1'
_cell_length_a   6.46503600
_cell_length_b   6.38873881
_cell_length_c   27.95633100
_cell_angle_alpha   92.75453660
_cell_angle_beta   96.62629410
_cell_angle_gamma   95.95021841
_symmetry_Int_Tables_number   1
_chemical_formula_structural   Cu4Mo12HC(S8O)2
_chemical_formula_sum   'Cu4 Mo12 H1 C1 S16 O2'
_cell_volume   1138.69222190
_cell_formula_units_Z   1
loop_
 _symmetry_equiv_pos_site_id
 _symmetry_equiv_pos_as_xyz
  1  'x, y, z'
loop_
 _atom_site_type_symbol
 _atom_site_label
 _atom_site_symmetry_multiplicity
 _atom_site_fract_x
 _atom_site_fract_y
 _atom_site_fract_z
 _atom_site_occupancy
  Cu  Cu0  1  0.93783252  0.16032687  0.46041938  1
  Cu  Cu1  1  0.91621491  0.14829072  0.68958181  1
  Cu  Cu2  1  0.05968000  0.84039500  0.27086500  1
  Cu  Cu3  1  0.04729679  0.83693175  0.50336936  1
  Mo  Mo4  1  0.21521500  0.54428600  0.34262100  1
  Mo  Mo5  1  0.20225236  0.54244196  0.57478670  1
  Mo  Mo6  1  0.78303730  0.45572210  0.38886727  1
  Mo  Mo7  1  0.77270155  0.44614327  0.62061122  1
  Mo  Mo8  1  0.40527591  0.21761646  0.37501520  1
  Mo  Mo9  1  0.39515303  0.21613231  0.60797567  1
  Mo  Mo10  1  0.59495600  0.78352200  0.35564700  1
  Mo  Mo11  1  0.57908755  0.77883534  0.58703149  1
  Mo  Mo12  1  0.53596300  0.40601700  0.30007200  1
  Mo  Mo13  1  0.52493289  0.40154879  0.53102873  1
  Mo  Mo14  1  0.46082078  0.59308805  0.43203619  1
  Mo  Mo15  1  0.45952900  0.59120617  0.66063067  1
  S  S16  1  0.14005526  0.36791362  0.41651995  1
  S  S17  1  0.13423572  0.36879007  0.65170997  1
  S  S18  1  0.85836300  0.62855700  0.31503700  1
  S  S19  1  0.84561085  0.62615397  0.54723724  1
  S  S20  1  0.72038700  0.13919400  0.33837300  1
  S  S21  1  0.70715553  0.13341740  0.56924316  1
  S  S22  1  0.27853748  0.86095157  0.39320011  1
  S  S23  1  0.26687091  0.86040774  0.62706009  1
  S  S24  1  0.38464800  0.73460900  0.27877900  1
  S  S25  1  0.36930525  0.72904217  0.51024920  1
  S  S26  1  0.61299479  0.26519386  0.45260129  1
  S  S27  1  0.60269958  0.27659533  0.68598128  1
  S  S28  1  0.19156400  0.20303200  0.29614100  1
  S  S29  1  0.17963595  0.20026447  0.52835285  1
  S  S30  1  0.80498777  0.79628084  0.43593305  1
  S  S31  1  0.79705371  0.79445021  0.66470244  1
  C  C32  1  0.98905812  0.15114853  0.75943893  1
  O  O33  1  0.04482080  0.31032048  0.78601189  1
  O  O34  1  0.93620140  0.96127438  0.77680920  1
  H  H35  1  0.94367268  0.97747627  0.81261372  1
