# generated using pymatgen
data_Cu4Mo12HCS16O
_symmetry_space_group_name_H-M   'P 1'
_cell_length_a   6.46503600
_cell_length_b   6.38873881
_cell_length_c   27.95633100
_cell_angle_alpha   92.75453660
_cell_angle_beta   96.62629410
_cell_angle_gamma   95.95021841
_symmetry_Int_Tables_number   1
_chemical_formula_structural   Cu4Mo12HCS16O
_chemical_formula_sum   'Cu4 Mo12 H1 C1 S16 O1'
_cell_volume   1138.69222190
_cell_formula_units_Z   1
loop_
 _symmetry_equiv_pos_site_id
 _symmetry_equiv_pos_as_xyz
  1  'x, y, z'
loop_
 _atom_site_type_symbol
 _atom_site_label
 _atom_site_symmetry_multiplicity
 _atom_site_fract_x
 _atom_site_fract_y
 _atom_site_fract_z
 _atom_site_occupancy
  Cu  Cu0  1  0.93941861  0.16265621  0.46039798  1
  Cu  Cu1  1  0.91146015  0.13509591  0.68492941  1
  Cu  Cu2  1  0.05968000  0.84039500  0.27086500  1
  Cu  Cu3  1  0.05120612  0.84164740  0.50345082  1
  Mo  Mo4  1  0.21521500  0.54428600  0.34262100  1
  Mo  Mo5  1  0.20656498  0.54495139  0.57485460  1
  Mo  Mo6  1  0.78505007  0.45603269  0.38892301  1
  Mo  Mo7  1  0.77056667  0.44943471  0.62020109  1
  Mo  Mo8  1  0.40635946  0.21891542  0.37510092  1
  Mo  Mo9  1  0.39675974  0.21896608  0.60816101  1
  Mo  Mo10  1  0.59495600  0.78352200  0.35564700  1
  Mo  Mo11  1  0.58176254  0.78115462  0.58763334  1
  Mo  Mo12  1  0.53596300  0.40601700  0.30007200  1
  Mo  Mo13  1  0.52783770  0.40550925  0.53098928  1
  Mo  Mo14  1  0.46274968  0.59554883  0.43215045  1
  Mo  Mo15  1  0.45733680  0.58923694  0.66114878  1
  S  S16  1  0.14200260  0.37046075  0.41673576  1
  S  S17  1  0.13162989  0.36872873  0.65105285  1
  S  S18  1  0.85836300  0.62855700  0.31503700  1
  S  S19  1  0.84923850  0.63015466  0.54725504  1
  S  S20  1  0.72038700  0.13919400  0.33837300  1
  S  S21  1  0.70841399  0.13618179  0.56892409  1
  S  S22  1  0.27845356  0.86186896  0.39317095  1
  S  S23  1  0.26998443  0.86206073  0.62761954  1
  S  S24  1  0.38464800  0.73460900  0.27877900  1
  S  S25  1  0.37364749  0.73274635  0.51058827  1
  S  S26  1  0.61462467  0.26678869  0.45259299  1
  S  S27  1  0.60329240  0.27685227  0.68678899  1
  S  S28  1  0.19156400  0.20303200  0.29614100  1
  S  S29  1  0.18361560  0.20319467  0.52815887  1
  S  S30  1  0.80751234  0.79755930  0.43571082  1
  S  S31  1  0.79560480  0.78835515  0.66688396  1
  C  C32  1  0.02274769  0.15039403  0.75269954  1
  H  H33  1  0.89270181  0.10080577  0.77458809  1
  O  O34  1  0.19761352  0.20875273  0.77086405  1
