# generated using pymatgen
data_Cu2Mo6S8N
_symmetry_space_group_name_H-M   'P 1'
_cell_length_a   6.46503600
_cell_length_b   6.38873881
_cell_length_c   27.95633100
_cell_angle_alpha   92.75453660
_cell_angle_beta   96.62629410
_cell_angle_gamma   95.95021841
_symmetry_Int_Tables_number   1
_chemical_formula_structural   Cu2Mo6S8N
_chemical_formula_sum   'Cu4 Mo12 S16 N2'
_cell_volume   1138.69222190
_cell_formula_units_Z   2
loop_
 _symmetry_equiv_pos_site_id
 _symmetry_equiv_pos_as_xyz
  1  'x, y, z'
loop_
 _atom_site_type_symbol
 _atom_site_label
 _atom_site_symmetry_multiplicity
 _atom_site_fract_x
 _atom_site_fract_y
 _atom_site_fract_z
 _atom_site_occupancy
  Cu  Cu0  1  0.94067156  0.16336726  0.46080688  1
  Cu  Cu1  1  0.89945345  0.08544342  0.65383661  1
  Cu  Cu2  1  0.05968000  0.84039500  0.27086500  1
  Cu  Cu3  1  0.05829906  0.84344714  0.50373536  1
  Mo  Mo4  1  0.21521500  0.54428600  0.34262100  1
  Mo  Mo5  1  0.21395869  0.54109899  0.57737447  1
  Mo  Mo6  1  0.78557905  0.45684382  0.38886960  1
  Mo  Mo7  1  0.78260099  0.44960918  0.61964220  1
  Mo  Mo8  1  0.40690633  0.21879034  0.37521634  1
  Mo  Mo9  1  0.40807048  0.21539491  0.60809774  1
  Mo  Mo10  1  0.59495600  0.78352200  0.35564700  1
  Mo  Mo11  1  0.59066719  0.77918241  0.58918606  1
  Mo  Mo12  1  0.53596300  0.40601700  0.30007200  1
  Mo  Mo13  1  0.53302728  0.40831109  0.53132371  1
  Mo  Mo14  1  0.46437461  0.59687513  0.43246508  1
  Mo  Mo15  1  0.47043668  0.57956076  0.66465959  1
  S  S16  1  0.14315365  0.37122638  0.41698099  1
  S  S17  1  0.13944247  0.36500080  0.65062949  1
  S  S18  1  0.85836300  0.62855700  0.31503700  1
  S  S19  1  0.85690171  0.63270553  0.54714034  1
  S  S20  1  0.72038700  0.13919400  0.33837300  1
  S  S21  1  0.71709389  0.13330899  0.56759958  1
  S  S22  1  0.27902052  0.86175928  0.39329217  1
  S  S23  1  0.28651614  0.85707125  0.63006683  1
  S  S24  1  0.38464800  0.73460900  0.27877900  1
  S  S25  1  0.38130809  0.73466775  0.51181604  1
  S  S26  1  0.61545835  0.26769138  0.45272331  1
  S  S27  1  0.62804207  0.26077648  0.68504149  1
  S  S28  1  0.19156400  0.20303200  0.29614100  1
  S  S29  1  0.18864327  0.20586525  0.52848134  1
  S  S30  1  0.80998222  0.79866049  0.43561694  1
  S  S31  1  0.81843779  0.76489668  0.67194341  1
  N  N32  1  0.46850204  0.62196403  0.74031548  1
  N  N33  1  0.47742357  0.61651396  0.78057336  1
