# generated using pymatgen
data_Fe2Mo6S8N
_symmetry_space_group_name_H-M   'P 1'
_cell_length_a   6.48394610
_cell_length_b   6.41202525
_cell_length_c   27.90841600
_cell_angle_alpha   93.69337570
_cell_angle_beta   94.75362703
_cell_angle_gamma   97.43854579
_symmetry_Int_Tables_number   1
_chemical_formula_structural   Fe2Mo6S8N
_chemical_formula_sum   'Fe4 Mo12 S16 N2'
_cell_volume   1143.25638445
_cell_formula_units_Z   2
loop_
 _symmetry_equiv_pos_site_id
 _symmetry_equiv_pos_as_xyz
  1  'x, y, z'
loop_
 _atom_site_type_symbol
 _atom_site_label
 _atom_site_symmetry_multiplicity
 _atom_site_fract_x
 _atom_site_fract_y
 _atom_site_fract_z
 _atom_site_occupancy
  Fe  Fe0  1  0.92401924  0.15444822  0.45976160  1
  Fe  Fe1  1  0.82811856  0.08535182  0.64489509  1
  Fe  Fe2  1  0.06524100  0.84263700  0.26375600  1
  Fe  Fe3  1  0.04969130  0.83285945  0.50258500  1
  Mo  Mo4  1  0.22096919  0.54015802  0.34344955  1
  Mo  Mo5  1  0.18964954  0.52654420  0.57582569  1
  Mo  Mo6  1  0.78432234  0.46034191  0.38755571  1
  Mo  Mo7  1  0.74979088  0.44604471  0.61798254  1
  Mo  Mo8  1  0.40879570  0.21923877  0.37491255  1
  Mo  Mo9  1  0.37776965  0.20114409  0.60659532  1
  Mo  Mo10  1  0.59427210  0.78148643  0.35588441  1
  Mo  Mo11  1  0.56310263  0.76768810  0.58773855  1
  Mo  Mo12  1  0.54135300  0.40905600  0.30082200  1
  Mo  Mo13  1  0.51618773  0.39812088  0.53099370  1
  Mo  Mo14  1  0.45604375  0.59368714  0.43167929  1
  Mo  Mo15  1  0.43175187  0.56660737  0.66233112  1
  S  S16  1  0.13282640  0.35956363  0.41618984  1
  S  S17  1  0.10118976  0.34542917  0.64819518  1
  S  S18  1  0.86842500  0.63937200  0.31349000  1
  S  S19  1  0.84089668  0.63186656  0.54638246  1
  S  S20  1  0.72301900  0.14241800  0.33608800  1
  S  S21  1  0.69168668  0.12060637  0.56467154  1
  S  S22  1  0.27937511  0.85897154  0.39483700  1
  S  S23  1  0.25274258  0.84182456  0.62960613  1
  S  S24  1  0.38478400  0.73178900  0.28021200  1
  S  S25  1  0.36022547  0.71883656  0.51127065  1
  S  S26  1  0.61389546  0.27171050  0.45136047  1
  S  S27  1  0.59033903  0.25455756  0.68421399  1
  S  S28  1  0.20162900  0.19284800  0.29629700  1
  S  S29  1  0.17131709  0.18623901  0.52510262  1
  S  S30  1  0.80258489  0.80320509  0.43751393  1
  S  S31  1  0.77835417  0.76474675  0.67002569  1
  N  N32  1  0.42129202  0.61604846  0.73927020  1
  N  N33  1  0.43326495  0.61389697  0.77945579  1
