# generated using pymatgen
data_Fe4Mo12C(S8O)2
_symmetry_space_group_name_H-M   'P 1'
_cell_length_a   6.48394610
_cell_length_b   6.41202525
_cell_length_c   27.90841600
_cell_angle_alpha   93.69337570
_cell_angle_beta   94.75362703
_cell_angle_gamma   97.43854579
_symmetry_Int_Tables_number   1
_chemical_formula_structural   Fe4Mo12C(S8O)2
_chemical_formula_sum   'Fe4 Mo12 C1 S16 O2'
_cell_volume   1143.25638445
_cell_formula_units_Z   1
loop_
 _symmetry_equiv_pos_site_id
 _symmetry_equiv_pos_as_xyz
  1  'x, y, z'
loop_
 _atom_site_type_symbol
 _atom_site_label
 _atom_site_symmetry_multiplicity
 _atom_site_fract_x
 _atom_site_fract_y
 _atom_site_fract_z
 _atom_site_occupancy
  Fe  Fe0  1  0.92337891  0.15349057  0.46425141  1
  Fe  Fe1  1  0.85503232  0.12264567  0.68558792  1
  Fe  Fe2  1  0.06524100  0.84263700  0.26375600  1
  Fe  Fe3  1  0.03201943  0.82815550  0.49912838  1
  Mo  Mo4  1  0.21839936  0.53815417  0.34319800  1
  Mo  Mo5  1  0.18229740  0.52406502  0.57526121  1
  Mo  Mo6  1  0.77638679  0.45843181  0.38790469  1
  Mo  Mo7  1  0.74148653  0.44045721  0.61930419  1
  Mo  Mo8  1  0.40453022  0.21624358  0.37463562  1
  Mo  Mo9  1  0.36852040  0.20251104  0.60770655  1
  Mo  Mo10  1  0.59022493  0.78095780  0.35592051  1
  Mo  Mo11  1  0.55509286  0.76503066  0.58782665  1
  Mo  Mo12  1  0.54135300  0.40905600  0.30082200  1
  Mo  Mo13  1  0.50816708  0.39323214  0.53220868  1
  Mo  Mo14  1  0.44868633  0.58776471  0.43050948  1
  Mo  Mo15  1  0.41752486  0.57429953  0.66055196  1
  S  S16  1  0.12535471  0.35524335  0.41619524  1
  S  S17  1  0.09233136  0.34146081  0.65022692  1
  S  S18  1  0.86842500  0.63937200  0.31349000  1
  S  S19  1  0.83268197  0.62409698  0.54666240  1
  S  S20  1  0.72301900  0.14241800  0.33608800  1
  S  S21  1  0.68365810  0.12432466  0.56760005  1
  S  S22  1  0.27427157  0.85627728  0.39468140  1
  S  S23  1  0.23925090  0.84312347  0.62797900  1
  S  S24  1  0.38478400  0.73178900  0.28021200  1
  S  S25  1  0.35111242  0.71570076  0.51138617  1
  S  S26  1  0.60562429  0.26563307  0.45135469  1
  S  S27  1  0.56560086  0.26777767  0.68575095  1
  S  S28  1  0.20162900  0.19284800  0.29629700  1
  S  S29  1  0.16686510  0.17869355  0.52786992  1
  S  S30  1  0.78954835  0.80283533  0.43562371  1
  S  S31  1  0.76049406  0.77818669  0.66682084  1
  C  C32  1  0.93529475  0.14935642  0.75421619  1
  O  O33  1  0.99252477  0.34056138  0.76821464  1
  O  O34  1  0.91804106  0.98919365  0.77806022  1
