# generated using pymatgen
data_Fe4Mo12C(S8O)2
_symmetry_space_group_name_H-M   'P 1'
_cell_length_a   6.48394610
_cell_length_b   6.41202525
_cell_length_c   27.90841600
_cell_angle_alpha   93.69337570
_cell_angle_beta   94.75362703
_cell_angle_gamma   97.43854579
_symmetry_Int_Tables_number   1
_chemical_formula_structural   Fe4Mo12C(S8O)2
_chemical_formula_sum   'Fe4 Mo12 C1 S16 O2'
_cell_volume   1143.25638445
_cell_formula_units_Z   1
loop_
 _symmetry_equiv_pos_site_id
 _symmetry_equiv_pos_as_xyz
  1  'x, y, z'
loop_
 _atom_site_type_symbol
 _atom_site_label
 _atom_site_symmetry_multiplicity
 _atom_site_fract_x
 _atom_site_fract_y
 _atom_site_fract_z
 _atom_site_occupancy
  Fe  Fe0  1  0.93511696  0.15696788  0.46597540  1
  Fe  Fe1  1  0.86516196  0.11301283  0.65516769  1
  Fe  Fe2  1  0.06524100  0.84263700  0.26375600  1
  Fe  Fe3  1  0.06248758  0.84060792  0.49421387  1
  Mo  Mo4  1  0.21939595  0.53891842  0.34329979  1
  Mo  Mo5  1  0.21298602  0.54025105  0.57553995  1
  Mo  Mo6  1  0.78102826  0.46012670  0.38732518  1
  Mo  Mo7  1  0.77349876  0.45959960  0.61756452  1
  Mo  Mo8  1  0.40701037  0.21810266  0.37476491  1
  Mo  Mo9  1  0.39971408  0.21879071  0.60717023  1
  Mo  Mo10  1  0.59259123  0.78270280  0.35555505  1
  Mo  Mo11  1  0.58629522  0.77868770  0.58684032  1
  Mo  Mo12  1  0.54135300  0.40905600  0.30082200  1
  Mo  Mo13  1  0.53537995  0.40918865  0.53144925  1
  Mo  Mo14  1  0.45652144  0.59126791  0.43047620  1
  Mo  Mo15  1  0.45604426  0.58858687  0.66040973  1
  S  S16  1  0.13132973  0.35981671  0.41693531  1
  S  S17  1  0.12752297  0.36854729  0.64963902  1
  S  S18  1  0.86842500  0.63937200  0.31349000  1
  S  S19  1  0.86304679  0.64169385  0.54450491  1
  S  S20  1  0.72301900  0.14241800  0.33608800  1
  S  S21  1  0.71520563  0.13565979  0.56551951  1
  S  S22  1  0.27538780  0.85758929  0.39471250  1
  S  S23  1  0.27509533  0.85903182  0.62804242  1
  S  S24  1  0.38478400  0.73178900  0.28021200  1
  S  S25  1  0.37843860  0.73008668  0.51144033  1
  S  S26  1  0.61460045  0.26819444  0.45070005  1
  S  S27  1  0.60942069  0.28006569  0.68576069  1
  S  S28  1  0.20162900  0.19284800  0.29629700  1
  S  S29  1  0.19503298  0.19423283  0.52757791  1
  S  S30  1  0.79627059  0.80690904  0.43483483  1
  S  S31  1  0.80345239  0.77866729  0.66953901  1
  C  C32  1  0.40289733  0.56459899  0.76913786  1
  O  O33  1  0.42236529  0.70504001  0.74367489  1
  O  O34  1  0.38268474  0.42466720  0.79357791  1
