# generated using pymatgen
data_Cu4Mo12CS16O
_symmetry_space_group_name_H-M   'P 1'
_cell_length_a   6.46503600
_cell_length_b   6.38873881
_cell_length_c   27.95633100
_cell_angle_alpha   92.75453660
_cell_angle_beta   96.62629410
_cell_angle_gamma   95.95021841
_symmetry_Int_Tables_number   1
_chemical_formula_structural   Cu4Mo12CS16O
_chemical_formula_sum   'Cu4 Mo12 C1 S16 O1'
_cell_volume   1138.69222190
_cell_formula_units_Z   1
loop_
 _symmetry_equiv_pos_site_id
 _symmetry_equiv_pos_as_xyz
  1  'x, y, z'
loop_
 _atom_site_type_symbol
 _atom_site_label
 _atom_site_symmetry_multiplicity
 _atom_site_fract_x
 _atom_site_fract_y
 _atom_site_fract_z
 _atom_site_occupancy
  Cu  Cu0  1  0.94207761  0.16299185  0.46092993  1
  Cu  Cu1  1  0.91001588  0.11489446  0.67001720  1
  Cu  Cu2  1  0.05968000  0.84039500  0.27086500  1
  Cu  Cu3  1  0.05859006  0.84149522  0.50345314  1
  Mo  Mo4  1  0.21521500  0.54428600  0.34262100  1
  Mo  Mo5  1  0.21493261  0.53978873  0.57681314  1
  Mo  Mo6  1  0.78702874  0.45652269  0.38888398  1
  Mo  Mo7  1  0.78528618  0.44895836  0.61966204  1
  Mo  Mo8  1  0.40737090  0.21853948  0.37516617  1
  Mo  Mo9  1  0.41125244  0.21411489  0.60836041  1
  Mo  Mo10  1  0.59495600  0.78352200  0.35564700  1
  Mo  Mo11  1  0.59307768  0.77820142  0.58864101  1
  Mo  Mo12  1  0.53596300  0.40601700  0.30007200  1
  Mo  Mo13  1  0.53456877  0.40565583  0.53146552  1
  Mo  Mo14  1  0.46509127  0.59596457  0.43239198  1
  Mo  Mo15  1  0.47153830  0.58467179  0.66519549  1
  S  S16  1  0.14401541  0.37070313  0.41690428  1
  S  S17  1  0.14443438  0.36572996  0.65067243  1
  S  S18  1  0.85836300  0.62855700  0.31503700  1
  S  S19  1  0.85821359  0.62876773  0.54687387  1
  S  S20  1  0.72038700  0.13919400  0.33837300  1
  S  S21  1  0.71954426  0.13406100  0.56812780  1
  S  S22  1  0.27949293  0.86156815  0.39332575  1
  S  S23  1  0.28661709  0.85728565  0.62898933  1
  S  S24  1  0.38464800  0.73460900  0.27877900  1
  S  S25  1  0.38149213  0.73204997  0.51148761  1
  S  S26  1  0.61668475  0.26715694  0.45259739  1
  S  S27  1  0.62128390  0.26418595  0.68619918  1
  S  S28  1  0.19156400  0.20303200  0.29614100  1
  S  S29  1  0.19106736  0.20267083  0.52848771  1
  S  S30  1  0.81052052  0.79791249  0.43571057  1
  S  S31  1  0.81594355  0.77716809  0.66878904  1
  O  O32  1  0.46420101  0.62809985  0.77973776  1
  C  C33  1  0.46473757  0.62835521  0.73838974  1
