# generated using pymatgen
data_Cu4Mo12H(S8N)2
_symmetry_space_group_name_H-M   'P 1'
_cell_length_a   6.46503600
_cell_length_b   6.38873881
_cell_length_c   27.95633100
_cell_angle_alpha   92.75453660
_cell_angle_beta   96.62629410
_cell_angle_gamma   95.95021841
_symmetry_Int_Tables_number   1
_chemical_formula_structural   Cu4Mo12H(S8N)2
_chemical_formula_sum   'Cu4 Mo12 H1 S16 N2'
_cell_volume   1138.69222190
_cell_formula_units_Z   1
loop_
 _symmetry_equiv_pos_site_id
 _symmetry_equiv_pos_as_xyz
  1  'x, y, z'
loop_
 _atom_site_type_symbol
 _atom_site_label
 _atom_site_symmetry_multiplicity
 _atom_site_fract_x
 _atom_site_fract_y
 _atom_site_fract_z
 _atom_site_occupancy
  Cu  Cu0  1  0.94007671  0.16293162  0.46090256  1
  Cu  Cu1  1  0.91906445  0.13872151  0.68981632  1
  Cu  Cu2  1  0.05968000  0.84039500  0.27086500  1
  Cu  Cu3  1  0.05261327  0.83953241  0.50341434  1
  Mo  Mo4  1  0.21521500  0.54428600  0.34262100  1
  Mo  Mo5  1  0.20759054  0.54249342  0.57575834  1
  Mo  Mo6  1  0.78537075  0.45618627  0.38885107  1
  Mo  Mo7  1  0.77580343  0.45083845  0.62044773  1
  Mo  Mo8  1  0.40623958  0.21759316  0.37507287  1
  Mo  Mo9  1  0.40183023  0.21797578  0.60834716  1
  Mo  Mo10  1  0.59495600  0.78352200  0.35564700  1
  Mo  Mo11  1  0.58468235  0.78140586  0.58742096  1
  Mo  Mo12  1  0.53596300  0.40601700  0.30007200  1
  Mo  Mo13  1  0.52935571  0.40476735  0.53093471  1
  Mo  Mo14  1  0.46354004  0.59429920  0.43225544  1
  Mo  Mo15  1  0.46404413  0.59003621  0.66105206  1
  S  S16  1  0.14232128  0.36925542  0.41672543  1
  S  S17  1  0.13612654  0.36972646  0.65069823  1
  S  S18  1  0.85836300  0.62855700  0.31503700  1
  S  S19  1  0.85067808  0.62979015  0.54691514  1
  S  S20  1  0.72038700  0.13919400  0.33837300  1
  S  S21  1  0.71284052  0.13684571  0.56954313  1
  S  S22  1  0.27932139  0.86104125  0.39317425  1
  S  S23  1  0.27378882  0.86136578  0.62779155  1
  S  S24  1  0.38464800  0.73460900  0.27877900  1
  S  S25  1  0.37519784  0.73193547  0.51056278  1
  S  S26  1  0.61443889  0.26573021  0.45260722  1
  S  S27  1  0.60790825  0.27624064  0.68708796  1
  S  S28  1  0.19156400  0.20303200  0.29614100  1
  S  S29  1  0.18532747  0.20176881  0.52858930  1
  S  S30  1  0.80823146  0.79746819  0.43567489  1
  S  S31  1  0.80164760  0.79400800  0.66589575  1
  N  N32  1  0.04152216  0.14576903  0.75621739  1
  N  N33  1  0.95444015  0.13772866  0.79132024  1
  H  H34  1  0.04402345  0.13678643  0.82529241  1
