# generated using pymatgen
data_Mo12HS24
_symmetry_space_group_name_H-M   'P 1'
_cell_length_a   6.31973600
_cell_length_b   12.46268000
_cell_length_c   24.68128287
_cell_angle_alpha   90.00000000
_cell_angle_beta   93.66151225
_cell_angle_gamma   90.00000000
_symmetry_Int_Tables_number   1
_chemical_formula_structural   Mo12HS24
_chemical_formula_sum   'Mo12 H1 S24'
_cell_volume   1939.95071504
_cell_formula_units_Z   1
loop_
 _symmetry_equiv_pos_site_id
 _symmetry_equiv_pos_as_xyz
  1  'x, y, z'
loop_
 _atom_site_type_symbol
 _atom_site_label
 _atom_site_symmetry_multiplicity
 _atom_site_fract_x
 _atom_site_fract_y
 _atom_site_fract_z
 _atom_site_occupancy
  Mo  Mo0  1  0.34212400  0.25000000  0.37044000  1
  Mo  Mo1  1  0.84212400  0.25000000  0.37044000  1
  Mo  Mo2  1  0.10232000  0.75000000  0.40733800  1
  Mo  Mo3  1  0.60232000  0.75000000  0.40733800  1
  Mo  Mo4  1  0.12066375  0.24999652  0.48151748  1
  Mo  Mo5  1  0.61914711  0.24999638  0.48152066  1
  Mo  Mo6  1  0.38080725  0.74999742  0.52107483  1
  Mo  Mo7  1  0.88079577  0.74999818  0.52103078  1
  Mo  Mo8  1  0.39840392  0.24999358  0.59552374  1
  Mo  Mo9  1  0.89847750  0.24999507  0.59579788  1
  Mo  Mo10  1  0.15726274  0.74998586  0.62718785  1
  Mo  Mo11  1  0.65763575  0.74998610  0.62718804  1
  S  S12  1  0.10138600  0.37552900  0.40747300  1
  S  S13  1  0.60138600  0.37552900  0.40747300  1
  S  S14  1  0.34305100  0.87552500  0.37029900  1
  S  S15  1  0.84305100  0.87552500  0.37029900  1
  S  S16  1  0.10138600  0.12447100  0.40747300  1
  S  S17  1  0.60138600  0.12447100  0.40747300  1
  S  S18  1  0.34305100  0.62447500  0.37029900  1
  S  S19  1  0.84305100  0.62447500  0.37029900  1
  S  S20  1  0.37955618  0.37496824  0.52016508  1
  S  S21  1  0.87940671  0.37383773  0.51955726  1
  S  S22  1  0.12116723  0.87392116  0.48243870  1
  S  S23  1  0.62110066  0.87392169  0.48243871  1
  S  S24  1  0.37955593  0.12502449  0.52016571  1
  S  S25  1  0.87940701  0.12615737  0.51955816  1
  S  S26  1  0.12116588  0.62607461  0.48243744  1
  S  S27  1  0.62110077  0.62607413  0.48243743  1
  S  S28  1  0.15311615  0.37345333  0.63348665  1
  S  S29  1  0.66266855  0.37345607  0.63348595  1
  S  S30  1  0.39947901  0.87701631  0.59552253  1
  S  S31  1  0.89946553  0.87706237  0.59546678  1
  S  S32  1  0.15311232  0.12653032  0.63348656  1
  S  S33  1  0.66267076  0.12652784  0.63348586  1
  S  S34  1  0.39947789  0.62296204  0.59551768  1
  S  S35  1  0.89946369  0.62291713  0.59546148  1
  H  H36  1  0.41619571  0.24999959  0.66689632  1
