# generated using pymatgen
data_Cu4Mo12HS16
_symmetry_space_group_name_H-M   'P 1'
_cell_length_a   6.46503600
_cell_length_b   6.38873881
_cell_length_c   27.95633100
_cell_angle_alpha   92.75453660
_cell_angle_beta   96.62629410
_cell_angle_gamma   95.95021841
_symmetry_Int_Tables_number   1
_chemical_formula_structural   Cu4Mo12HS16
_chemical_formula_sum   'Cu4 Mo12 H1 S16'
_cell_volume   1138.69222190
_cell_formula_units_Z   1
loop_
 _symmetry_equiv_pos_site_id
 _symmetry_equiv_pos_as_xyz
  1  'x, y, z'
loop_
 _atom_site_type_symbol
 _atom_site_label
 _atom_site_symmetry_multiplicity
 _atom_site_fract_x
 _atom_site_fract_y
 _atom_site_fract_z
 _atom_site_occupancy
  Cu  Cu0  1  0.93753809  0.16381194  0.46071124  1
  Cu  Cu1  1  0.97172411  0.04065929  0.63317804  1
  Cu  Cu2  1  0.05968000  0.84039500  0.27086500  1
  Cu  Cu3  1  0.05250160  0.84621724  0.50353308  1
  Mo  Mo4  1  0.21521500  0.54428600  0.34262100  1
  Mo  Mo5  1  0.20851539  0.54428139  0.57635589  1
  Mo  Mo6  1  0.78443836  0.45632693  0.38887231  1
  Mo  Mo7  1  0.76857801  0.45768294  0.62082255  1
  Mo  Mo8  1  0.40657389  0.21911601  0.37524618  1
  Mo  Mo9  1  0.39640728  0.22246480  0.60850147  1
  Mo  Mo10  1  0.59495600  0.78352200  0.35564700  1
  Mo  Mo11  1  0.58288308  0.78036968  0.58767458  1
  Mo  Mo12  1  0.53596300  0.40601700  0.30007200  1
  Mo  Mo13  1  0.52805022  0.41007310  0.53196921  1
  Mo  Mo14  1  0.46281235  0.59651073  0.43220984  1
  Mo  Mo15  1  0.44961576  0.59580973  0.66173944  1
  S  S16  1  0.14190341  0.37036553  0.41690015  1
  S  S17  1  0.12321065  0.37754425  0.65261612  1
  S  S18  1  0.85836300  0.62855700  0.31503700  1
  S  S19  1  0.85050788  0.63392393  0.54721846  1
  S  S20  1  0.72038700  0.13919400  0.33837300  1
  S  S21  1  0.70864712  0.13665441  0.56929306  1
  S  S22  1  0.27822290  0.86200795  0.39312691  1
  S  S23  1  0.26797047  0.86393171  0.62716850  1
  S  S24  1  0.38464800  0.73460900  0.27877900  1
  S  S25  1  0.37398063  0.73490052  0.51050552  1
  S  S26  1  0.61382697  0.26828316  0.45300315  1
  S  S27  1  0.61112423  0.28776305  0.68501322  1
  S  S28  1  0.19156400  0.20303200  0.29614100  1
  S  S29  1  0.18527542  0.20738399  0.52871303  1
  S  S30  1  0.80778749  0.79860863  0.43558665  1
  S  S31  1  0.79618942  0.78773652  0.67083873  1
  H  H32  1  0.67541022  0.15397022  0.71906695  1
