# generated using pymatgen
data_Cu4Mo12HS16
_symmetry_space_group_name_H-M   'P 1'
_cell_length_a   6.46503600
_cell_length_b   6.38873881
_cell_length_c   27.95633100
_cell_angle_alpha   92.75453660
_cell_angle_beta   96.62629410
_cell_angle_gamma   95.95021841
_symmetry_Int_Tables_number   1
_chemical_formula_structural   Cu4Mo12HS16
_chemical_formula_sum   'Cu4 Mo12 H1 S16'
_cell_volume   1138.69222190
_cell_formula_units_Z   1
loop_
 _symmetry_equiv_pos_site_id
 _symmetry_equiv_pos_as_xyz
  1  'x, y, z'
loop_
 _atom_site_type_symbol
 _atom_site_label
 _atom_site_symmetry_multiplicity
 _atom_site_fract_x
 _atom_site_fract_y
 _atom_site_fract_z
 _atom_site_occupancy
  Cu  Cu0  1  0.94042450  0.16182732  0.46089808  1
  Cu  Cu1  1  0.93714950  0.15172114  0.68869196  1
  Cu  Cu2  1  0.05968000  0.84039500  0.27086500  1
  Cu  Cu3  1  0.05457103  0.84303005  0.50357769  1
  Mo  Mo4  1  0.21521500  0.54428600  0.34262100  1
  Mo  Mo5  1  0.21024498  0.55133084  0.57456071  1
  Mo  Mo6  1  0.78344198  0.45598164  0.38904281  1
  Mo  Mo7  1  0.78642991  0.45334321  0.62097252  1
  Mo  Mo8  1  0.40571292  0.21890817  0.37529212  1
  Mo  Mo9  1  0.40552661  0.22304252  0.60876164  1
  Mo  Mo10  1  0.59495600  0.78352200  0.35564700  1
  Mo  Mo11  1  0.58878153  0.78247858  0.58874230  1
  Mo  Mo12  1  0.53596300  0.40601700  0.30007200  1
  Mo  Mo13  1  0.53252908  0.40643484  0.53175490  1
  Mo  Mo14  1  0.46207946  0.59495945  0.43229637  1
  Mo  Mo15  1  0.46745179  0.59208839  0.66213372  1
  S  S16  1  0.14116225  0.37016280  0.41688788  1
  S  S17  1  0.14310569  0.37504563  0.65113205  1
  S  S18  1  0.85836300  0.62855700  0.31503700  1
  S  S19  1  0.85409660  0.62921358  0.54770363  1
  S  S20  1  0.72038700  0.13919400  0.33837300  1
  S  S21  1  0.71615327  0.13830232  0.57024629  1
  S  S22  1  0.27881577  0.86159573  0.39328799  1
  S  S23  1  0.27814350  0.86547771  0.62830355  1
  S  S24  1  0.38464800  0.73460900  0.27877900  1
  S  S25  1  0.37885579  0.73580832  0.51136340  1
  S  S26  1  0.61466798  0.26643963  0.45292043  1
  S  S27  1  0.61928221  0.27745337  0.68695581  1
  S  S28  1  0.19156400  0.20303200  0.29614100  1
  S  S29  1  0.18624588  0.20732901  0.52888952  1
  S  S30  1  0.80692996  0.79706679  0.43618524  1
  S  S31  1  0.80221023  0.79396786  0.66785036  1
  H  H32  1  0.12912076  0.10051726  0.72028944  1
