# generated using pymatgen
data_Cu4Mo12H(S8N)2
_symmetry_space_group_name_H-M   'P 1'
_cell_length_a   6.46503600
_cell_length_b   6.38873881
_cell_length_c   27.95633100
_cell_angle_alpha   92.75453660
_cell_angle_beta   96.62629410
_cell_angle_gamma   95.95021841
_symmetry_Int_Tables_number   1
_chemical_formula_structural   Cu4Mo12H(S8N)2
_chemical_formula_sum   'Cu4 Mo12 H1 S16 N2'
_cell_volume   1138.69222190
_cell_formula_units_Z   1
loop_
 _symmetry_equiv_pos_site_id
 _symmetry_equiv_pos_as_xyz
  1  'x, y, z'
loop_
 _atom_site_type_symbol
 _atom_site_label
 _atom_site_symmetry_multiplicity
 _atom_site_fract_x
 _atom_site_fract_y
 _atom_site_fract_z
 _atom_site_occupancy
  Cu  Cu0  1  0.94030628  0.15998077  0.46059305  1
  Cu  Cu1  1  0.89952392  0.06823261  0.64469523  1
  Cu  Cu2  1  0.05968000  0.84039500  0.27086500  1
  Cu  Cu3  1  0.05761140  0.84237469  0.50406787  1
  Mo  Mo4  1  0.21521500  0.54428600  0.34262100  1
  Mo  Mo5  1  0.21264065  0.53591047  0.57752861  1
  Mo  Mo6  1  0.78411979  0.45648532  0.38888468  1
  Mo  Mo7  1  0.78096249  0.44881593  0.62071000  1
  Mo  Mo8  1  0.40672821  0.21891639  0.37530069  1
  Mo  Mo9  1  0.40487985  0.21480063  0.60835639  1
  Mo  Mo10  1  0.59495600  0.78352200  0.35564700  1
  Mo  Mo11  1  0.58949357  0.77407818  0.58922542  1
  Mo  Mo12  1  0.53596300  0.40601700  0.30007200  1
  Mo  Mo13  1  0.53316749  0.40582728  0.53234929  1
  Mo  Mo14  1  0.46402589  0.59619680  0.43233815  1
  Mo  Mo15  1  0.46547431  0.58734499  0.66889431  1
  S  S16  1  0.14242451  0.37068034  0.41700220  1
  S  S17  1  0.13647961  0.36233542  0.65168724  1
  S  S18  1  0.85836300  0.62855700  0.31503700  1
  S  S19  1  0.85734632  0.62929620  0.54744751  1
  S  S20  1  0.72038700  0.13919400  0.33837300  1
  S  S21  1  0.71341647  0.12757859  0.56771285  1
  S  S22  1  0.27892577  0.86156462  0.39336011  1
  S  S23  1  0.28000454  0.85242923  0.62911986  1
  S  S24  1  0.38464800  0.73460900  0.27877900  1
  S  S25  1  0.38036818  0.73102584  0.51183915  1
  S  S26  1  0.61621979  0.26782276  0.45292445  1
  S  S27  1  0.62668281  0.25896203  0.68340957  1
  S  S28  1  0.19156400  0.20303200  0.29614100  1
  S  S29  1  0.18826038  0.20216945  0.52845921  1
  S  S30  1  0.80963769  0.79770269  0.43573308  1
  S  S31  1  0.81807569  0.76473109  0.67239280  1
  N  N32  1  0.47773252  0.63894165  0.73661157  1
  N  N33  1  0.49328806  0.65996834  0.77988524  1
  H  H34  1  0.59699070  0.57091443  0.79958395  1
