# generated using pymatgen
data_Fe4Mo12H(S8N)2
_symmetry_space_group_name_H-M   'P 1'
_cell_length_a   6.48394610
_cell_length_b   6.41202525
_cell_length_c   27.90841600
_cell_angle_alpha   93.69337570
_cell_angle_beta   94.75362703
_cell_angle_gamma   97.43854579
_symmetry_Int_Tables_number   1
_chemical_formula_structural   Fe4Mo12H(S8N)2
_chemical_formula_sum   'Fe4 Mo12 H1 S16 N2'
_cell_volume   1143.25638445
_cell_formula_units_Z   1
loop_
 _symmetry_equiv_pos_site_id
 _symmetry_equiv_pos_as_xyz
  1  'x, y, z'
loop_
 _atom_site_type_symbol
 _atom_site_label
 _atom_site_symmetry_multiplicity
 _atom_site_fract_x
 _atom_site_fract_y
 _atom_site_fract_z
 _atom_site_occupancy
  Fe  Fe0  1  0.91976410  0.15179551  0.45712545  1
  Fe  Fe1  1  0.86318174  0.12108730  0.68303152  1
  Fe  Fe2  1  0.06524100  0.84263700  0.26375600  1
  Fe  Fe3  1  0.03790812  0.82877563  0.50319322  1
  Mo  Mo4  1  0.22094948  0.53898593  0.34308609  1
  Mo  Mo5  1  0.17324054  0.52186498  0.57359615  1
  Mo  Mo6  1  0.78130198  0.46076061  0.38721125  1
  Mo  Mo7  1  0.73443130  0.43614660  0.61696956  1
  Mo  Mo8  1  0.40679441  0.21778354  0.37454208  1
  Mo  Mo9  1  0.36216696  0.19992690  0.60515376  1
  Mo  Mo10  1  0.59319630  0.78163470  0.35568609  1
  Mo  Mo11  1  0.55003090  0.76085517  0.58606063  1
  Mo  Mo12  1  0.54135300  0.40905600  0.30082200  1
  Mo  Mo13  1  0.50338363  0.38935591  0.52915223  1
  Mo  Mo14  1  0.45164120  0.59113968  0.43128096  1
  Mo  Mo15  1  0.41480141  0.56874005  0.65874086  1
  S  S16  1  0.12972423  0.35951285  0.41529596  1
  S  S17  1  0.08786268  0.34593066  0.64705199  1
  S  S18  1  0.86842500  0.63937200  0.31349000  1
  S  S19  1  0.82633657  0.62173031  0.54524702  1
  S  S20  1  0.72301900  0.14241800  0.33608800  1
  S  S21  1  0.67602136  0.12008451  0.56542836  1
  S  S22  1  0.27764998  0.85768232  0.39432660  1
  S  S23  1  0.23554275  0.84017847  0.62697997  1
  S  S24  1  0.38478400  0.73178900  0.28021200  1
  S  S25  1  0.34740425  0.71256334  0.50980898  1
  S  S26  1  0.60975335  0.26931703  0.45077847  1
  S  S27  1  0.56136659  0.25877069  0.68296800  1
  S  S28  1  0.20162900  0.19284800  0.29629700  1
  S  S29  1  0.15700761  0.18259285  0.52334332  1
  S  S30  1  0.79769793  0.79998638  0.43739044  1
  S  S31  1  0.75495290  0.77279820  0.66501008  1
  N  N32  1  0.92105410  0.12466844  0.74385839  1
  N  N33  1  0.88069152  0.09685475  0.78413681  1
  H  H34  1  0.99533516  0.13185188  0.81301769  1
