# generated using pymatgen
data_Fe4Mo12CS16O
_symmetry_space_group_name_H-M   'P 1'
_cell_length_a   6.48394610
_cell_length_b   6.41202525
_cell_length_c   27.90841600
_cell_angle_alpha   93.69337570
_cell_angle_beta   94.75362703
_cell_angle_gamma   97.43854579
_symmetry_Int_Tables_number   1
_chemical_formula_structural   Fe4Mo12CS16O
_chemical_formula_sum   'Fe4 Mo12 C1 S16 O1'
_cell_volume   1143.25638445
_cell_formula_units_Z   1
loop_
 _symmetry_equiv_pos_site_id
 _symmetry_equiv_pos_as_xyz
  1  'x, y, z'
loop_
 _atom_site_type_symbol
 _atom_site_label
 _atom_site_symmetry_multiplicity
 _atom_site_fract_x
 _atom_site_fract_y
 _atom_site_fract_z
 _atom_site_occupancy
  Fe  Fe0  1  0.93353947  0.15339872  0.46563128  1
  Fe  Fe1  1  0.86082510  0.10115808  0.65553535  1
  Fe  Fe2  1  0.06524100  0.84263700  0.26375600  1
  Fe  Fe3  1  0.05636468  0.83646105  0.49707866  1
  Mo  Mo4  1  0.22168669  0.53799964  0.34392853  1
  Mo  Mo5  1  0.20448425  0.53413971  0.57651915  1
  Mo  Mo6  1  0.77890042  0.45991516  0.38761069  1
  Mo  Mo7  1  0.76530259  0.45065321  0.61867809  1
  Mo  Mo8  1  0.40690973  0.21761635  0.37510359  1
  Mo  Mo9  1  0.39096712  0.20898090  0.60766728  1
  Mo  Mo10  1  0.59236861  0.78207972  0.35585515  1
  Mo  Mo11  1  0.57787295  0.77250114  0.58848651  1
  Mo  Mo12  1  0.54135300  0.40905600  0.30082200  1
  Mo  Mo13  1  0.52817331  0.40442524  0.53256334  1
  Mo  Mo14  1  0.45553342  0.59042319  0.43115034  1
  Mo  Mo15  1  0.44544527  0.57676295  0.66415616  1
  S  S16  1  0.13041978  0.35925006  0.41739561  1
  S  S17  1  0.11793671  0.35804664  0.64932451  1
  S  S18  1  0.86842500  0.63937200  0.31349000  1
  S  S19  1  0.85506156  0.63713684  0.54612614  1
  S  S20  1  0.72301900  0.14241800  0.33608800  1
  S  S21  1  0.70654377  0.12856781  0.56583842  1
  S  S22  1  0.27651113  0.85700944  0.39516414  1
  S  S23  1  0.26777561  0.84989538  0.62979069  1
  S  S24  1  0.38478400  0.73178900  0.28021200  1
  S  S25  1  0.37259871  0.72571140  0.51238941  1
  S  S26  1  0.61335891  0.26787624  0.45151472  1
  S  S27  1  0.60100747  0.26441101  0.68544257  1
  S  S28  1  0.20162900  0.19284800  0.29629700  1
  S  S29  1  0.18720698  0.19026984  0.52805437  1
  S  S30  1  0.79619476  0.80528858  0.43571811  1
  S  S31  1  0.79424313  0.76852511  0.67073202  1
  O  O32  1  0.43025626  0.60396319  0.77941695  1
  C  C33  1  0.42862685  0.61314524  0.73825938  1
