# generated using pymatgen
data_Fe4Mo12CS16O
_symmetry_space_group_name_H-M   'P 1'
_cell_length_a   6.48394610
_cell_length_b   6.41202525
_cell_length_c   27.90841600
_cell_angle_alpha   93.69337570
_cell_angle_beta   94.75362703
_cell_angle_gamma   97.43854579
_symmetry_Int_Tables_number   1
_chemical_formula_structural   Fe4Mo12CS16O
_chemical_formula_sum   'Fe4 Mo12 C1 S16 O1'
_cell_volume   1143.25638445
_cell_formula_units_Z   1
loop_
 _symmetry_equiv_pos_site_id
 _symmetry_equiv_pos_as_xyz
  1  'x, y, z'
loop_
 _atom_site_type_symbol
 _atom_site_label
 _atom_site_symmetry_multiplicity
 _atom_site_fract_x
 _atom_site_fract_y
 _atom_site_fract_z
 _atom_site_occupancy
  Fe  Fe0  1  0.92115094  0.15404170  0.45911908  1
  Fe  Fe1  1  0.86548631  0.12556533  0.68008856  1
  Fe  Fe2  1  0.06524100  0.84263700  0.26375600  1
  Fe  Fe3  1  0.04158836  0.82982262  0.50295915  1
  Mo  Mo4  1  0.22130466  0.53870977  0.34336267  1
  Mo  Mo5  1  0.17914436  0.52544559  0.57438615  1
  Mo  Mo6  1  0.78175500  0.46034489  0.38759689  1
  Mo  Mo7  1  0.74554864  0.43849882  0.61801721  1
  Mo  Mo8  1  0.40697073  0.21780348  0.37476644  1
  Mo  Mo9  1  0.36919390  0.20378656  0.60652348  1
  Mo  Mo10  1  0.59351506  0.78133427  0.35586082  1
  Mo  Mo11  1  0.55602710  0.76381583  0.58701580  1
  Mo  Mo12  1  0.54135300  0.40905600  0.30082200  1
  Mo  Mo13  1  0.50919282  0.39130842  0.53010783  1
  Mo  Mo14  1  0.45235076  0.59117949  0.43161491  1
  Mo  Mo15  1  0.42353420  0.57420156  0.66011994  1
  S  S16  1  0.13002176  0.35889776  0.41591443  1
  S  S17  1  0.09848943  0.35058243  0.65018128  1
  S  S18  1  0.86842500  0.63937200  0.31349000  1
  S  S19  1  0.83246021  0.62338034  0.54609696  1
  S  S20  1  0.72301900  0.14241800  0.33608800  1
  S  S21  1  0.68325230  0.12303874  0.56623450  1
  S  S22  1  0.27788691  0.85751524  0.39454844  1
  S  S23  1  0.24285225  0.84402179  0.62774853  1
  S  S24  1  0.38478400  0.73178900  0.28021200  1
  S  S25  1  0.35161101  0.71398806  0.51082927  1
  S  S26  1  0.61019662  0.26929444  0.45111554  1
  S  S27  1  0.57325347  0.26616334  0.68355352  1
  S  S28  1  0.20162900  0.19284800  0.29629700  1
  S  S29  1  0.16275337  0.18299748  0.52477906  1
  S  S30  1  0.79761305  0.80202738  0.43781443  1
  S  S31  1  0.76326460  0.77830944  0.66543246  1
  O  O32  1  0.95236984  0.13471948  0.78367485  1
  C  C33  1  0.93627627  0.13468344  0.74160930  1
