# generated using pymatgen
data_Cu2Mo6S8N
_symmetry_space_group_name_H-M   'P 1'
_cell_length_a   6.46503600
_cell_length_b   6.38873881
_cell_length_c   27.95633100
_cell_angle_alpha   92.75453660
_cell_angle_beta   96.62629410
_cell_angle_gamma   95.95021841
_symmetry_Int_Tables_number   1
_chemical_formula_structural   Cu2Mo6S8N
_chemical_formula_sum   'Cu4 Mo12 S16 N2'
_cell_volume   1138.69222190
_cell_formula_units_Z   2
loop_
 _symmetry_equiv_pos_site_id
 _symmetry_equiv_pos_as_xyz
  1  'x, y, z'
loop_
 _atom_site_type_symbol
 _atom_site_label
 _atom_site_symmetry_multiplicity
 _atom_site_fract_x
 _atom_site_fract_y
 _atom_site_fract_z
 _atom_site_occupancy
  Cu  Cu0  1  0.94120691  0.16393320  0.46083019  1
  Cu  Cu1  1  0.90352905  0.09684760  0.66033026  1
  Cu  Cu2  1  0.05968000  0.84039500  0.27086500  1
  Cu  Cu3  1  0.05850603  0.84355621  0.50367383  1
  Mo  Mo4  1  0.21521500  0.54428600  0.34262100  1
  Mo  Mo5  1  0.21483211  0.54105332  0.57725674  1
  Mo  Mo6  1  0.78640143  0.45676722  0.38889144  1
  Mo  Mo7  1  0.78342474  0.44897388  0.61941080  1
  Mo  Mo8  1  0.40707707  0.21884052  0.37518055  1
  Mo  Mo9  1  0.40914819  0.21515192  0.60809371  1
  Mo  Mo10  1  0.59495600  0.78352200  0.35564700  1
  Mo  Mo11  1  0.59171247  0.77862563  0.58913201  1
  Mo  Mo12  1  0.53596300  0.40601700  0.30007200  1
  Mo  Mo13  1  0.53352874  0.40768575  0.53123770  1
  Mo  Mo14  1  0.46485901  0.59699746  0.43246841  1
  Mo  Mo15  1  0.47192508  0.58059159  0.66467667  1
  S  S16  1  0.14368034  0.37144774  0.41697290  1
  S  S17  1  0.14165257  0.36570360  0.65069153  1
  S  S18  1  0.85836300  0.62855700  0.31503700  1
  S  S19  1  0.85751055  0.63167611  0.54700048  1
  S  S20  1  0.72038700  0.13919400  0.33837300  1
  S  S21  1  0.71772075  0.13372948  0.56766002  1
  S  S22  1  0.27921684  0.86184089  0.39328362  1
  S  S23  1  0.28728191  0.85715456  0.62995347  1
  S  S24  1  0.38464800  0.73460900  0.27877900  1
  S  S25  1  0.38150576  0.73438282  0.51178117  1
  S  S26  1  0.61585560  0.26762415  0.45262449  1
  S  S27  1  0.62543144  0.26078740  0.68537216  1
  S  S28  1  0.19156400  0.20303200  0.29614100  1
  S  S29  1  0.18937192  0.20542490  0.52842839  1
  S  S30  1  0.81046817  0.79859516  0.43562469  1
  S  S31  1  0.81813351  0.76763451  0.67098988  1
  N  N32  1  0.47021830  0.62410263  0.74074718  1
  N  N33  1  0.47952738  0.61769317  0.78091855  1
