# generated using pymatgen
data_Cu4Mo12HC(S8O)2
_symmetry_space_group_name_H-M   'P 1'
_cell_length_a   6.46503600
_cell_length_b   6.38873881
_cell_length_c   27.95633100
_cell_angle_alpha   92.75453660
_cell_angle_beta   96.62629410
_cell_angle_gamma   95.95021841
_symmetry_Int_Tables_number   1
_chemical_formula_structural   Cu4Mo12HC(S8O)2
_chemical_formula_sum   'Cu4 Mo12 H1 C1 S16 O2'
_cell_volume   1138.69222190
_cell_formula_units_Z   1
loop_
 _symmetry_equiv_pos_site_id
 _symmetry_equiv_pos_as_xyz
  1  'x, y, z'
loop_
 _atom_site_type_symbol
 _atom_site_label
 _atom_site_symmetry_multiplicity
 _atom_site_fract_x
 _atom_site_fract_y
 _atom_site_fract_z
 _atom_site_occupancy
  Cu  Cu0  1  0.93809098  0.15724866  0.46048523  1
  Cu  Cu1  1  0.92360427  0.14681414  0.68804530  1
  Cu  Cu2  1  0.05968000  0.84039500  0.27086500  1
  Cu  Cu3  1  0.04969190  0.83384855  0.50348681  1
  Mo  Mo4  1  0.21521500  0.54428600  0.34262100  1
  Mo  Mo5  1  0.20222091  0.53901664  0.57533840  1
  Mo  Mo6  1  0.78138623  0.45561055  0.38880866  1
  Mo  Mo7  1  0.77879457  0.44525823  0.62022998  1
  Mo  Mo8  1  0.40477932  0.21614319  0.37503628  1
  Mo  Mo9  1  0.40142034  0.21529666  0.60810524  1
  Mo  Mo10  1  0.59495600  0.78352200  0.35564700  1
  Mo  Mo11  1  0.58217529  0.77523899  0.58755636  1
  Mo  Mo12  1  0.53596300  0.40601700  0.30007200  1
  Mo  Mo13  1  0.52656350  0.39846571  0.53081953  1
  Mo  Mo14  1  0.46055567  0.59118593  0.43209635  1
  Mo  Mo15  1  0.46394502  0.58779775  0.66090303  1
  S  S16  1  0.13919578  0.36626021  0.41643460  1
  S  S17  1  0.13694003  0.36906893  0.65034127  1
  S  S18  1  0.85836300  0.62855700  0.31503700  1
  S  S19  1  0.84717714  0.62309296  0.54673600  1
  S  S20  1  0.72038700  0.13919400  0.33837300  1
  S  S21  1  0.71118924  0.13089139  0.56928073  1
  S  S22  1  0.27875364  0.85964136  0.39343159  1
  S  S23  1  0.27163876  0.85833348  0.62756109  1
  S  S24  1  0.38464800  0.73460900  0.27877900  1
  S  S25  1  0.37203857  0.72681228  0.51077704  1
  S  S26  1  0.61283671  0.26315708  0.45246340  1
  S  S27  1  0.61096230  0.27514893  0.68685132  1
  S  S28  1  0.19156400  0.20303200  0.29614100  1
  S  S29  1  0.18197487  0.19795243  0.52847929  1
  S  S30  1  0.80478638  0.79539899  0.43598718  1
  S  S31  1  0.80126841  0.79008970  0.66587584  1
  C  C32  1  0.96621523  0.10787884  0.78819459  1
  O  O33  1  0.93861535  0.97218923  0.81848503  1
  O  O34  1  0.07623543  0.09030113  0.75321359  1
  H  H35  1  0.89175804  0.25731308  0.79178684  1
