# generated using pymatgen
data_Cu4Mo12CS16O
_symmetry_space_group_name_H-M   'P 1'
_cell_length_a   6.46503600
_cell_length_b   6.38873881
_cell_length_c   27.95633100
_cell_angle_alpha   92.75453660
_cell_angle_beta   96.62629410
_cell_angle_gamma   95.95021841
_symmetry_Int_Tables_number   1
_chemical_formula_structural   Cu4Mo12CS16O
_chemical_formula_sum   'Cu4 Mo12 C1 S16 O1'
_cell_volume   1138.69222190
_cell_formula_units_Z   1
loop_
 _symmetry_equiv_pos_site_id
 _symmetry_equiv_pos_as_xyz
  1  'x, y, z'
loop_
 _atom_site_type_symbol
 _atom_site_label
 _atom_site_symmetry_multiplicity
 _atom_site_fract_x
 _atom_site_fract_y
 _atom_site_fract_z
 _atom_site_occupancy
  Cu  Cu0  1  0.93229943  0.15996383  0.46011978  1
  Cu  Cu1  1  0.06887815  0.03358586  0.67708555  1
  Cu  Cu2  1  0.05968000  0.84039500  0.27086500  1
  Cu  Cu3  1  0.04094154  0.83753982  0.50359132  1
  Mo  Mo4  1  0.21521500  0.54428600  0.34262100  1
  Mo  Mo5  1  0.19080619  0.53945679  0.57517899  1
  Mo  Mo6  1  0.77994528  0.45547503  0.38878634  1
  Mo  Mo7  1  0.75467748  0.45377352  0.61995051  1
  Mo  Mo8  1  0.40420342  0.21639732  0.37496518  1
  Mo  Mo9  1  0.38617585  0.22134759  0.60839460  1
  Mo  Mo10  1  0.59495600  0.78352200  0.35564700  1
  Mo  Mo11  1  0.56870964  0.77977837  0.58600292  1
  Mo  Mo12  1  0.53596300  0.40601700  0.30007200  1
  Mo  Mo13  1  0.51369768  0.40289720  0.53033646  1
  Mo  Mo14  1  0.45802425  0.59173125  0.43176067  1
  Mo  Mo15  1  0.44048294  0.58472874  0.65959007  1
  S  S16  1  0.13734517  0.36567056  0.41615743  1
  S  S17  1  0.10985227  0.37532241  0.65132512  1
  S  S18  1  0.85836300  0.62855700  0.31503700  1
  S  S19  1  0.83379113  0.62920748  0.54576846  1
  S  S20  1  0.72038700  0.13919400  0.33837300  1
  S  S21  1  0.69597220  0.13626878  0.56987094  1
  S  S22  1  0.27691906  0.86030791  0.39303527  1
  S  S23  1  0.25485015  0.85890228  0.62664674  1
  S  S24  1  0.38464800  0.73460900  0.27877900  1
  S  S25  1  0.36059286  0.72895176  0.50924580  1
  S  S26  1  0.60864040  0.26449724  0.45269304  1
  S  S27  1  0.60488680  0.28248247  0.68642827  1
  S  S28  1  0.19156400  0.20303200  0.29614100  1
  S  S29  1  0.17115891  0.19961282  0.52854891  1
  S  S30  1  0.80183503  0.79704287  0.43536385  1
  S  S31  1  0.77588164  0.79280711  0.66476352  1
  O  O32  1  0.95458962  0.09902299  0.77544374  1
  C  C33  1  0.04163493  0.07589501  0.74198802  1
