# generated using pymatgen
data_Cu4Mo12CS16O
_symmetry_space_group_name_H-M   'P 1'
_cell_length_a   6.46503600
_cell_length_b   6.38873881
_cell_length_c   27.95633100
_cell_angle_alpha   92.75453660
_cell_angle_beta   96.62629410
_cell_angle_gamma   95.95021841
_symmetry_Int_Tables_number   1
_chemical_formula_structural   Cu4Mo12CS16O
_chemical_formula_sum   'Cu4 Mo12 C1 S16 O1'
_cell_volume   1138.69222190
_cell_formula_units_Z   1
loop_
 _symmetry_equiv_pos_site_id
 _symmetry_equiv_pos_as_xyz
  1  'x, y, z'
loop_
 _atom_site_type_symbol
 _atom_site_label
 _atom_site_symmetry_multiplicity
 _atom_site_fract_x
 _atom_site_fract_y
 _atom_site_fract_z
 _atom_site_occupancy
  Cu  Cu0  1  0.93820149  0.16008408  0.45990533  1
  Cu  Cu1  1  0.92362016  0.13593283  0.68790428  1
  Cu  Cu2  1  0.05968000  0.84039500  0.27086500  1
  Cu  Cu3  1  0.05214609  0.83881482  0.50295108  1
  Mo  Mo4  1  0.21521500  0.54428600  0.34262100  1
  Mo  Mo5  1  0.20603126  0.53952392  0.57453355  1
  Mo  Mo6  1  0.78452487  0.45572327  0.38863728  1
  Mo  Mo7  1  0.77478604  0.44735969  0.61878621  1
  Mo  Mo8  1  0.40566454  0.21650954  0.37482612  1
  Mo  Mo9  1  0.40055910  0.21518948  0.60679763  1
  Mo  Mo10  1  0.59495600  0.78352200  0.35564700  1
  Mo  Mo11  1  0.58388136  0.77816486  0.58609251  1
  Mo  Mo12  1  0.53596300  0.40601700  0.30007200  1
  Mo  Mo13  1  0.52783570  0.40213744  0.52975990  1
  Mo  Mo14  1  0.46273346  0.59282347  0.43185274  1
  Mo  Mo15  1  0.46276768  0.58545900  0.65912432  1
  S  S16  1  0.14149068  0.36791709  0.41637292  1
  S  S17  1  0.13558633  0.36592193  0.64921133  1
  S  S18  1  0.85836300  0.62855700  0.31503700  1
  S  S19  1  0.84952677  0.62657227  0.54550105  1
  S  S20  1  0.72038700  0.13919400  0.33837300  1
  S  S21  1  0.71186338  0.13325351  0.56816395  1
  S  S22  1  0.27871957  0.86041880  0.39310561  1
  S  S23  1  0.27316504  0.85818007  0.62662915  1
  S  S24  1  0.38464800  0.73460900  0.27877900  1
  S  S25  1  0.37365507  0.72982928  0.50971694  1
  S  S26  1  0.61365023  0.26391000  0.45199619  1
  S  S27  1  0.60729196  0.27165098  0.68550019  1
  S  S28  1  0.19156400  0.20303200  0.29614100  1
  S  S29  1  0.18350045  0.19944314  0.52745672  1
  S  S30  1  0.80720342  0.79668897  0.43538232  1
  S  S31  1  0.80172586  0.78775158  0.66444214  1
  O  O32  1  0.95019103  0.08551371  0.79255612  1
  C  C33  1  0.98470512  0.11666082  0.75379908  1
