# generated using pymatgen
data_Cu4Mo12HS16
_symmetry_space_group_name_H-M   'P 1'
_cell_length_a   6.46503600
_cell_length_b   6.38873881
_cell_length_c   27.95633100
_cell_angle_alpha   92.75453660
_cell_angle_beta   96.62629410
_cell_angle_gamma   95.95021841
_symmetry_Int_Tables_number   1
_chemical_formula_structural   Cu4Mo12HS16
_chemical_formula_sum   'Cu4 Mo12 H1 S16'
_cell_volume   1138.69222190
_cell_formula_units_Z   1
loop_
 _symmetry_equiv_pos_site_id
 _symmetry_equiv_pos_as_xyz
  1  'x, y, z'
loop_
 _atom_site_type_symbol
 _atom_site_label
 _atom_site_symmetry_multiplicity
 _atom_site_fract_x
 _atom_site_fract_y
 _atom_site_fract_z
 _atom_site_occupancy
  Cu  Cu0  1  0.94257788  0.16792254  0.46061632  1
  Cu  Cu1  1  0.86396740  0.10446008  0.65937935  1
  Cu  Cu2  1  0.05968000  0.84039500  0.27086500  1
  Cu  Cu3  1  0.06372654  0.85517824  0.50315343  1
  Mo  Mo4  1  0.21521500  0.54428600  0.34262100  1
  Mo  Mo5  1  0.22350940  0.54480051  0.57638761  1
  Mo  Mo6  1  0.78822676  0.45695554  0.38881083  1
  Mo  Mo7  1  0.78607667  0.45812618  0.61707195  1
  Mo  Mo8  1  0.40815957  0.22080183  0.37522993  1
  Mo  Mo9  1  0.41494336  0.22124148  0.60805351  1
  Mo  Mo10  1  0.59495600  0.78352200  0.35564700  1
  Mo  Mo11  1  0.59520223  0.78166281  0.58862023  1
  Mo  Mo12  1  0.53596300  0.40601700  0.30007200  1
  Mo  Mo13  1  0.53905591  0.41158005  0.53133482  1
  Mo  Mo14  1  0.46636093  0.59968836  0.43242502  1
  Mo  Mo15  1  0.46800096  0.57783166  0.66130847  1
  S  S16  1  0.14573728  0.37427496  0.41734365  1
  S  S17  1  0.13888682  0.35654113  0.65020651  1
  S  S18  1  0.85836300  0.62855700  0.31503700  1
  S  S19  1  0.86455661  0.63725993  0.54661029  1
  S  S20  1  0.72038700  0.13919400  0.33837300  1
  S  S21  1  0.72394416  0.13844003  0.56722819  1
  S  S22  1  0.27905854  0.86314793  0.39315966  1
  S  S23  1  0.28768900  0.86133174  0.62980509  1
  S  S24  1  0.38464800  0.73460900  0.27877900  1
  S  S25  1  0.38463404  0.73765964  0.51173631  1
  S  S26  1  0.61771885  0.26972430  0.45241573  1
  S  S27  1  0.62931325  0.28456397  0.69795777  1
  S  S28  1  0.19156400  0.20303200  0.29614100  1
  S  S29  1  0.19728295  0.20705133  0.52909307  1
  S  S30  1  0.81199023  0.80000103  0.43556088  1
  S  S31  1  0.81338658  0.76978953  0.67138851  1
  H  H32  1  0.48166279  0.12470349  0.70690049  1
