# generated using pymatgen
data_Cu4Mo12HS16
_symmetry_space_group_name_H-M   'P 1'
_cell_length_a   6.46503600
_cell_length_b   6.38873881
_cell_length_c   27.95633100
_cell_angle_alpha   92.75453660
_cell_angle_beta   96.62629410
_cell_angle_gamma   95.95021841
_symmetry_Int_Tables_number   1
_chemical_formula_structural   Cu4Mo12HS16
_chemical_formula_sum   'Cu4 Mo12 H1 S16'
_cell_volume   1138.69222190
_cell_formula_units_Z   1
loop_
 _symmetry_equiv_pos_site_id
 _symmetry_equiv_pos_as_xyz
  1  'x, y, z'
loop_
 _atom_site_type_symbol
 _atom_site_label
 _atom_site_symmetry_multiplicity
 _atom_site_fract_x
 _atom_site_fract_y
 _atom_site_fract_z
 _atom_site_occupancy
  Cu  Cu0  1  0.93936079  0.15726358  0.46110408  1
  Cu  Cu1  1  0.99226408  0.04203754  0.63280892  1
  Cu  Cu2  1  0.05968000  0.84039500  0.27086500  1
  Cu  Cu3  1  0.05402782  0.83074297  0.50274716  1
  Mo  Mo4  1  0.21521500  0.54428600  0.34262100  1
  Mo  Mo5  1  0.20513859  0.54179350  0.57551603  1
  Mo  Mo6  1  0.78160409  0.45578773  0.38875410  1
  Mo  Mo7  1  0.78270831  0.44755825  0.62162723  1
  Mo  Mo8  1  0.40520147  0.21661266  0.37525198  1
  Mo  Mo9  1  0.40558383  0.21324179  0.60833920  1
  Mo  Mo10  1  0.59495600  0.78352200  0.35564700  1
  Mo  Mo11  1  0.58962589  0.77854822  0.58757724  1
  Mo  Mo12  1  0.53596300  0.40601700  0.30007200  1
  Mo  Mo13  1  0.53011367  0.40351091  0.53173625  1
  Mo  Mo14  1  0.46184666  0.59231238  0.43206058  1
  Mo  Mo15  1  0.46660847  0.58527870  0.66365001  1
  S  S16  1  0.14006023  0.36718480  0.41676827  1
  S  S17  1  0.13730847  0.38096939  0.65080682  1
  S  S18  1  0.85836300  0.62855700  0.31503700  1
  S  S19  1  0.85183671  0.62567401  0.54723493  1
  S  S20  1  0.72038700  0.13919400  0.33837300  1
  S  S21  1  0.71390764  0.13156350  0.56886750  1
  S  S22  1  0.27879083  0.86004582  0.39348584  1
  S  S23  1  0.28189865  0.85671201  0.62810764  1
  S  S24  1  0.38464800  0.73460900  0.27877900  1
  S  S25  1  0.37816390  0.73057582  0.51088855  1
  S  S26  1  0.61391963  0.26478437  0.45289506  1
  S  S27  1  0.62644380  0.27386241  0.68602109  1
  S  S28  1  0.19156400  0.20303200  0.29614100  1
  S  S29  1  0.18608248  0.20190138  0.52858985  1
  S  S30  1  0.80618343  0.79641550  0.43590364  1
  S  S31  1  0.81331515  0.78343789  0.66882957  1
  H  H32  1  0.45127558  0.66015108  0.72469698  1
