# generated using pymatgen
data_Cu4Mo12HCS16O
_symmetry_space_group_name_H-M   'P 1'
_cell_length_a   6.46503600
_cell_length_b   6.38873881
_cell_length_c   27.95633100
_cell_angle_alpha   92.75453660
_cell_angle_beta   96.62629410
_cell_angle_gamma   95.95021841
_symmetry_Int_Tables_number   1
_chemical_formula_structural   Cu4Mo12HCS16O
_chemical_formula_sum   'Cu4 Mo12 H1 C1 S16 O1'
_cell_volume   1138.69222190
_cell_formula_units_Z   1
loop_
 _symmetry_equiv_pos_site_id
 _symmetry_equiv_pos_as_xyz
  1  'x, y, z'
loop_
 _atom_site_type_symbol
 _atom_site_label
 _atom_site_symmetry_multiplicity
 _atom_site_fract_x
 _atom_site_fract_y
 _atom_site_fract_z
 _atom_site_occupancy
  Cu  Cu0  1  0.94636718  0.16687370  0.46220715  1
  Cu  Cu1  1  0.92940812  0.12436585  0.67282502  1
  Cu  Cu2  1  0.05968000  0.84039500  0.27086500  1
  Cu  Cu3  1  0.06506905  0.84861184  0.50291661  1
  Mo  Mo4  1  0.21521500  0.54428600  0.34262100  1
  Mo  Mo5  1  0.23277996  0.54730124  0.57833509  1
  Mo  Mo6  1  0.78738413  0.45632827  0.38893818  1
  Mo  Mo7  1  0.79820561  0.45010326  0.61965409  1
  Mo  Mo8  1  0.40793566  0.21969495  0.37524512  1
  Mo  Mo9  1  0.42619090  0.21889285  0.61054413  1
  Mo  Mo10  1  0.59495600  0.78352200  0.35564700  1
  Mo  Mo11  1  0.60628573  0.78289417  0.58722598  1
  Mo  Mo12  1  0.53596300  0.40601700  0.30007200  1
  Mo  Mo13  1  0.54304237  0.40882323  0.53232069  1
  Mo  Mo14  1  0.46722733  0.59711774  0.43219297  1
  Mo  Mo15  1  0.49528356  0.59606822  0.66955037  1
  S  S16  1  0.14528422  0.37222118  0.41731162  1
  S  S17  1  0.16309914  0.37268492  0.65163804  1
  S  S18  1  0.85836300  0.62855700  0.31503700  1
  S  S19  1  0.87144589  0.62927273  0.54687943  1
  S  S20  1  0.72038700  0.13919400  0.33837300  1
  S  S21  1  0.72421861  0.13580160  0.56778633  1
  S  S22  1  0.27943906  0.86201315  0.39330983  1
  S  S23  1  0.30737506  0.86270557  0.63135399  1
  S  S24  1  0.38464800  0.73460900  0.27877900  1
  S  S25  1  0.38754729  0.73533031  0.51103207  1
  S  S26  1  0.61909921  0.26785224  0.45275035  1
  S  S27  1  0.64212863  0.26989107  0.68840861  1
  S  S28  1  0.19156400  0.20303200  0.29614100  1
  S  S29  1  0.19923574  0.20592987  0.53095352  1
  S  S30  1  0.81298882  0.79831655  0.43568650  1
  S  S31  1  0.83668429  0.78581832  0.66392129  1
  C  C32  1  0.43160961  0.59315566  0.74089889  1
  H  H33  1  0.33782152  0.52322057  0.76816381  1
  O  O34  1  0.56842201  0.74154758  0.74914655  1
