# generated using pymatgen
data_Fe4Mo12C(S8O)2
_symmetry_space_group_name_H-M   'P 1'
_cell_length_a   6.48394610
_cell_length_b   6.41202525
_cell_length_c   27.90841600
_cell_angle_alpha   93.69337570
_cell_angle_beta   94.75362703
_cell_angle_gamma   97.43854579
_symmetry_Int_Tables_number   1
_chemical_formula_structural   Fe4Mo12C(S8O)2
_chemical_formula_sum   'Fe4 Mo12 C1 S16 O2'
_cell_volume   1143.25638445
_cell_formula_units_Z   1
loop_
 _symmetry_equiv_pos_site_id
 _symmetry_equiv_pos_as_xyz
  1  'x, y, z'
loop_
 _atom_site_type_symbol
 _atom_site_label
 _atom_site_symmetry_multiplicity
 _atom_site_fract_x
 _atom_site_fract_y
 _atom_site_fract_z
 _atom_site_occupancy
  Fe  Fe0  1  0.93438805  0.15642859  0.46824806  1
  Fe  Fe1  1  0.86791793  0.11328597  0.65551305  1
  Fe  Fe2  1  0.06524100  0.84263700  0.26375600  1
  Fe  Fe3  1  0.06515402  0.84201527  0.49401016  1
  Mo  Mo4  1  0.22159107  0.53802715  0.34392791  1
  Mo  Mo5  1  0.21728736  0.54091711  0.57604932  1
  Mo  Mo6  1  0.77929984  0.46013124  0.38745094  1
  Mo  Mo7  1  0.77823099  0.46064583  0.61778285  1
  Mo  Mo8  1  0.40676321  0.21762385  0.37499433  1
  Mo  Mo9  1  0.40430519  0.21999481  0.60766495  1
  Mo  Mo10  1  0.59267046  0.78235237  0.35572118  1
  Mo  Mo11  1  0.59037042  0.77939695  0.58702814  1
  Mo  Mo12  1  0.54135300  0.40905600  0.30082200  1
  Mo  Mo13  1  0.53863286  0.40982709  0.53185541  1
  Mo  Mo14  1  0.45647738  0.59026669  0.43084182  1
  Mo  Mo15  1  0.46088623  0.58977243  0.66060624  1
  S  S16  1  0.13039838  0.35840113  0.41766368  1
  S  S17  1  0.13217329  0.36862984  0.65023937  1
  S  S18  1  0.86842500  0.63937200  0.31349000  1
  S  S19  1  0.86695203  0.64198252  0.54465582  1
  S  S20  1  0.72301900  0.14241800  0.33608800  1
  S  S21  1  0.72032530  0.13660101  0.56552213  1
  S  S22  1  0.27550080  0.85701214  0.39520766  1
  S  S23  1  0.27961103  0.86001243  0.62839119  1
  S  S24  1  0.38478400  0.73178900  0.28021200  1
  S  S25  1  0.38117808  0.73091247  0.51188725  1
  S  S26  1  0.61458952  0.26785456  0.45092303  1
  S  S27  1  0.61474916  0.28227274  0.68638143  1
  S  S28  1  0.20162900  0.19284800  0.29629700  1
  S  S29  1  0.19943970  0.19397474  0.52848392  1
  S  S30  1  0.79490693  0.80723181  0.43521190  1
  S  S31  1  0.80889417  0.77935814  0.67002305  1
  C  C32  1  0.40438074  0.56868500  0.76920309  1
  O  O33  1  0.42983737  0.71383352  0.74522802  1
  O  O34  1  0.37839546  0.42520224  0.79247186  1
