# generated using pymatgen
data_Cu4Mo12HS16
_symmetry_space_group_name_H-M   'P 1'
_cell_length_a   6.46503600
_cell_length_b   6.38873881
_cell_length_c   27.95633100
_cell_angle_alpha   92.75453660
_cell_angle_beta   96.62629410
_cell_angle_gamma   95.95021841
_symmetry_Int_Tables_number   1
_chemical_formula_structural   Cu4Mo12HS16
_chemical_formula_sum   'Cu4 Mo12 H1 S16'
_cell_volume   1138.69222190
_cell_formula_units_Z   1
loop_
 _symmetry_equiv_pos_site_id
 _symmetry_equiv_pos_as_xyz
  1  'x, y, z'
loop_
 _atom_site_type_symbol
 _atom_site_label
 _atom_site_symmetry_multiplicity
 _atom_site_fract_x
 _atom_site_fract_y
 _atom_site_fract_z
 _atom_site_occupancy
  Cu  Cu0  1  0.94368601  0.16888900  0.46085397  1
  Cu  Cu1  1  0.87988071  0.12254343  0.66875941  1
  Cu  Cu2  1  0.05968000  0.84039500  0.27086500  1
  Cu  Cu3  1  0.06369635  0.85491818  0.50318668  1
  Mo  Mo4  1  0.21521500  0.54428600  0.34262100  1
  Mo  Mo5  1  0.22375257  0.54732660  0.57623467  1
  Mo  Mo6  1  0.78906006  0.45673125  0.38885959  1
  Mo  Mo7  1  0.78752530  0.46125927  0.61729943  1
  Mo  Mo8  1  0.40844080  0.22093638  0.37520832  1
  Mo  Mo9  1  0.41567130  0.22520244  0.60884359  1
  Mo  Mo10  1  0.59495600  0.78352200  0.35564700  1
  Mo  Mo11  1  0.59581016  0.78318431  0.58859585  1
  Mo  Mo12  1  0.53596300  0.40601700  0.30007200  1
  Mo  Mo13  1  0.53888537  0.41174091  0.53126592  1
  Mo  Mo14  1  0.46696934  0.59958405  0.43239430  1
  Mo  Mo15  1  0.46723679  0.58417928  0.66171789  1
  S  S16  1  0.14628121  0.37450391  0.41730684  1
  S  S17  1  0.13950625  0.36226444  0.65080756  1
  S  S18  1  0.85836300  0.62855700  0.31503700  1
  S  S19  1  0.86433692  0.63633178  0.54644747  1
  S  S20  1  0.72038700  0.13919400  0.33837300  1
  S  S21  1  0.72310917  0.14124934  0.56814350  1
  S  S22  1  0.27940040  0.86323310  0.39314805  1
  S  S23  1  0.28730773  0.86487888  0.62927650  1
  S  S24  1  0.38464800  0.73460900  0.27877900  1
  S  S25  1  0.38492477  0.73832231  0.51161794  1
  S  S26  1  0.61818718  0.26946823  0.45243225  1
  S  S27  1  0.61803065  0.28328198  0.69686637  1
  S  S28  1  0.19156400  0.20303200  0.29614100  1
  S  S29  1  0.19745220  0.20772451  0.52931484  1
  S  S30  1  0.81285937  0.79973655  0.43553498  1
  S  S31  1  0.81095828  0.77886188  0.67022878  1
  H  H32  1  0.47776748  0.13351393  0.71224652  1
