# generated using pymatgen
data_Cu4Mo12H(S8N)2
_symmetry_space_group_name_H-M   'P 1'
_cell_length_a   6.46503600
_cell_length_b   6.38873881
_cell_length_c   27.95633100
_cell_angle_alpha   92.75453660
_cell_angle_beta   96.62629410
_cell_angle_gamma   95.95021841
_symmetry_Int_Tables_number   1
_chemical_formula_structural   Cu4Mo12H(S8N)2
_chemical_formula_sum   'Cu4 Mo12 H1 S16 N2'
_cell_volume   1138.69222190
_cell_formula_units_Z   1
loop_
 _symmetry_equiv_pos_site_id
 _symmetry_equiv_pos_as_xyz
  1  'x, y, z'
loop_
 _atom_site_type_symbol
 _atom_site_label
 _atom_site_symmetry_multiplicity
 _atom_site_fract_x
 _atom_site_fract_y
 _atom_site_fract_z
 _atom_site_occupancy
  Cu  Cu0  1  0.94132969  0.16032372  0.46076159  1
  Cu  Cu1  1  0.90853276  0.11529352  0.67176953  1
  Cu  Cu2  1  0.05968000  0.84039500  0.27086500  1
  Cu  Cu3  1  0.05726141  0.84056714  0.50382017  1
  Mo  Mo4  1  0.21521500  0.54428600  0.34262100  1
  Mo  Mo5  1  0.21434322  0.53491118  0.57722856  1
  Mo  Mo6  1  0.78506476  0.45608764  0.38897094  1
  Mo  Mo7  1  0.78367916  0.44596182  0.62039407  1
  Mo  Mo8  1  0.40670747  0.21847447  0.37518712  1
  Mo  Mo9  1  0.40693823  0.21474413  0.60849069  1
  Mo  Mo10  1  0.59495600  0.78352200  0.35564700  1
  Mo  Mo11  1  0.59158316  0.77209379  0.58897209  1
  Mo  Mo12  1  0.53596300  0.40601700  0.30007200  1
  Mo  Mo13  1  0.53431725  0.40215508  0.53208764  1
  Mo  Mo14  1  0.46452232  0.59517237  0.43234512  1
  Mo  Mo15  1  0.46966650  0.59245336  0.66869875  1
  S  S16  1  0.14277868  0.37045217  0.41693586  1
  S  S17  1  0.14356158  0.36498778  0.65229129  1
  S  S18  1  0.85836300  0.62855700  0.31503700  1
  S  S19  1  0.85836911  0.62460363  0.54715213  1
  S  S20  1  0.72038700  0.13919400  0.33837300  1
  S  S21  1  0.71601557  0.12959236  0.56891117  1
  S  S22  1  0.27942275  0.86118663  0.39338645  1
  S  S23  1  0.28026376  0.85331809  0.62840726  1
  S  S24  1  0.38464800  0.73460900  0.27877900  1
  S  S25  1  0.38027578  0.72875449  0.51171396  1
  S  S26  1  0.61641646  0.26622069  0.45273258  1
  S  S27  1  0.61525177  0.26103611  0.68518897  1
  S  S28  1  0.19156400  0.20303200  0.29614100  1
  S  S29  1  0.18977173  0.19962107  0.52841216  1
  S  S30  1  0.81002652  0.79705690  0.43579403  1
  S  S31  1  0.81492463  0.77815343  0.66800345  1
  N  N32  1  0.48525068  0.65120120  0.73667001  1
  N  N33  1  0.49841857  0.67360623  0.77946041  1
  H  H34  1  0.59806850  0.58662117  0.80102698  1
