# generated using pymatgen
data_Cu4Mo12HC(S8O)2
_symmetry_space_group_name_H-M   'P 1'
_cell_length_a   6.46503600
_cell_length_b   6.38873881
_cell_length_c   27.95633100
_cell_angle_alpha   92.75453660
_cell_angle_beta   96.62629410
_cell_angle_gamma   95.95021841
_symmetry_Int_Tables_number   1
_chemical_formula_structural   Cu4Mo12HC(S8O)2
_chemical_formula_sum   'Cu4 Mo12 H1 C1 S16 O2'
_cell_volume   1138.69222190
_cell_formula_units_Z   1
loop_
 _symmetry_equiv_pos_site_id
 _symmetry_equiv_pos_as_xyz
  1  'x, y, z'
loop_
 _atom_site_type_symbol
 _atom_site_label
 _atom_site_symmetry_multiplicity
 _atom_site_fract_x
 _atom_site_fract_y
 _atom_site_fract_z
 _atom_site_occupancy
  Cu  Cu0  1  0.93494843  0.15644746  0.46047756  1
  Cu  Cu1  1  0.96803921  0.03045359  0.63236394  1
  Cu  Cu2  1  0.05968000  0.84039500  0.27086500  1
  Cu  Cu3  1  0.04474962  0.83149222  0.50345787  1
  Mo  Mo4  1  0.21521500  0.54428600  0.34262100  1
  Mo  Mo5  1  0.19723501  0.53243923  0.57591539  1
  Mo  Mo6  1  0.77972192  0.45560570  0.38870611  1
  Mo  Mo7  1  0.76093141  0.44268535  0.62096843  1
  Mo  Mo8  1  0.40433659  0.21639523  0.37505728  1
  Mo  Mo9  1  0.39019403  0.20991528  0.60834795  1
  Mo  Mo10  1  0.59495600  0.78352200  0.35564700  1
  Mo  Mo11  1  0.57301519  0.77024872  0.58730586  1
  Mo  Mo12  1  0.53596300  0.40601700  0.30007200  1
  Mo  Mo13  1  0.52018006  0.39931794  0.53112060  1
  Mo  Mo14  1  0.45895248  0.59115067  0.43183369  1
  Mo  Mo15  1  0.44839909  0.57436986  0.66119458  1
  S  S16  1  0.13754701  0.36545601  0.41631279  1
  S  S17  1  0.11710284  0.36804099  0.65141423  1
  S  S18  1  0.85836300  0.62855700  0.31503700  1
  S  S19  1  0.84169231  0.62405721  0.54705175  1
  S  S20  1  0.72038700  0.13919400  0.33837300  1
  S  S21  1  0.69996113  0.12497076  0.56867586  1
  S  S22  1  0.27745500  0.85988219  0.39331599  1
  S  S23  1  0.26405364  0.85099165  0.62794448  1
  S  S24  1  0.38464800  0.73460900  0.27877900  1
  S  S25  1  0.36629896  0.72431406  0.51025934  1
  S  S26  1  0.61096745  0.26358015  0.45264359  1
  S  S27  1  0.60955249  0.27044440  0.68645815  1
  S  S28  1  0.19156400  0.20303200  0.29614100  1
  S  S29  1  0.17806164  0.19537261  0.52816909  1
  S  S30  1  0.80271668  0.79601884  0.43566585  1
  S  S31  1  0.79012441  0.77462007  0.66965258  1
  C  C32  1  0.96924385  0.10552334  0.78853501  1
  O  O33  1  0.86578805  0.95739413  0.80694409  1
  O  O34  1  0.16061849  0.11162501  0.78176209  1
  H  H35  1  0.88497143  0.24250996  0.77730153  1
