# generated using pymatgen
data_Cu4Mo12H(S8N)2
_symmetry_space_group_name_H-M   'P 1'
_cell_length_a   6.46503600
_cell_length_b   6.38873881
_cell_length_c   27.95633100
_cell_angle_alpha   92.75453660
_cell_angle_beta   96.62629410
_cell_angle_gamma   95.95021841
_symmetry_Int_Tables_number   1
_chemical_formula_structural   Cu4Mo12H(S8N)2
_chemical_formula_sum   'Cu4 Mo12 H1 S16 N2'
_cell_volume   1138.69222190
_cell_formula_units_Z   1
loop_
 _symmetry_equiv_pos_site_id
 _symmetry_equiv_pos_as_xyz
  1  'x, y, z'
loop_
 _atom_site_type_symbol
 _atom_site_label
 _atom_site_symmetry_multiplicity
 _atom_site_fract_x
 _atom_site_fract_y
 _atom_site_fract_z
 _atom_site_occupancy
  Cu  Cu0  1  0.94079569  0.16033286  0.46054370  1
  Cu  Cu1  1  0.89953296  0.09134748  0.65843255  1
  Cu  Cu2  1  0.05968000  0.84039500  0.27086500  1
  Cu  Cu3  1  0.05844809  0.84222315  0.50387918  1
  Mo  Mo4  1  0.21521500  0.54428600  0.34262100  1
  Mo  Mo5  1  0.21400436  0.53601819  0.57723981  1
  Mo  Mo6  1  0.78489677  0.45641314  0.38890963  1
  Mo  Mo7  1  0.78297500  0.44685678  0.62001720  1
  Mo  Mo8  1  0.40692452  0.21880458  0.37523942  1
  Mo  Mo9  1  0.40671348  0.21474460  0.60813397  1
  Mo  Mo10  1  0.59495600  0.78352200  0.35564700  1
  Mo  Mo11  1  0.59162646  0.77299208  0.58935903  1
  Mo  Mo12  1  0.53596300  0.40601700  0.30007200  1
  Mo  Mo13  1  0.53419898  0.40443869  0.53205056  1
  Mo  Mo14  1  0.46449800  0.59606693  0.43237357  1
  Mo  Mo15  1  0.46753074  0.58849216  0.66866755  1
  S  S16  1  0.14292425  0.37086081  0.41696698  1
  S  S17  1  0.14080419  0.36268997  0.65145673  1
  S  S18  1  0.85836300  0.62855700  0.31503700  1
  S  S19  1  0.85835500  0.62786797  0.54713613  1
  S  S20  1  0.72038700  0.13919400  0.33837300  1
  S  S21  1  0.71603768  0.12886267  0.56813677  1
  S  S22  1  0.27914220  0.86147702  0.39338455  1
  S  S23  1  0.28141976  0.85274156  0.62890354  1
  S  S24  1  0.38464800  0.73460900  0.27877900  1
  S  S25  1  0.38149527  0.73085719  0.51189100  1
  S  S26  1  0.61654619  0.26725236  0.45277048  1
  S  S27  1  0.62233088  0.25861340  0.68403767  1
  S  S28  1  0.19156400  0.20303200  0.29614100  1
  S  S29  1  0.18923674  0.20169215  0.52824699  1
  S  S30  1  0.81005070  0.79761641  0.43573740  1
  S  S31  1  0.81797965  0.76588800  0.67090932  1
  N  N32  1  0.47951115  0.64194206  0.73654668  1
  N  N33  1  0.49386600  0.66261953  0.77970505  1
  H  H34  1  0.59600323  0.57473424  0.80016707  1
