# generated using pymatgen
data_Cu4Mo12HC(S8O)2
_symmetry_space_group_name_H-M   'P 1'
_cell_length_a   6.46503600
_cell_length_b   6.38873881
_cell_length_c   27.95633100
_cell_angle_alpha   92.75453660
_cell_angle_beta   96.62629410
_cell_angle_gamma   95.95021841
_symmetry_Int_Tables_number   1
_chemical_formula_structural   Cu4Mo12HC(S8O)2
_chemical_formula_sum   'Cu4 Mo12 H1 C1 S16 O2'
_cell_volume   1138.69222190
_cell_formula_units_Z   1
loop_
 _symmetry_equiv_pos_site_id
 _symmetry_equiv_pos_as_xyz
  1  'x, y, z'
loop_
 _atom_site_type_symbol
 _atom_site_label
 _atom_site_symmetry_multiplicity
 _atom_site_fract_x
 _atom_site_fract_y
 _atom_site_fract_z
 _atom_site_occupancy
  Cu  Cu0  1  0.94260063  0.15359092  0.46111208  1
  Cu  Cu1  1  0.00180473  0.03240271  0.63316658  1
  Cu  Cu2  1  0.05968000  0.84039500  0.27086500  1
  Cu  Cu3  1  0.05862783  0.82653336  0.50276180  1
  Mo  Mo4  1  0.21521500  0.54428600  0.34262100  1
  Mo  Mo5  1  0.21225193  0.53394520  0.57585256  1
  Mo  Mo6  1  0.78250010  0.45542731  0.38870317  1
  Mo  Mo7  1  0.79142353  0.43924769  0.62124880  1
  Mo  Mo8  1  0.40564773  0.21594725  0.37515832  1
  Mo  Mo9  1  0.41368586  0.20352102  0.60819976  1
  Mo  Mo10  1  0.59495600  0.78352200  0.35564700  1
  Mo  Mo11  1  0.59645990  0.77069068  0.58795410  1
  Mo  Mo12  1  0.53596300  0.40601700  0.30007200  1
  Mo  Mo13  1  0.53575472  0.39661400  0.53173901  1
  Mo  Mo14  1  0.46320839  0.59093686  0.43205107  1
  Mo  Mo15  1  0.47605289  0.57199553  0.66454250  1
  S  S16  1  0.14076013  0.36660765  0.41672885  1
  S  S17  1  0.14468252  0.37132567  0.65073237  1
  S  S18  1  0.85836300  0.62855700  0.31503700  1
  S  S19  1  0.85876271  0.61831092  0.54715396  1
  S  S20  1  0.72038700  0.13919400  0.33837300  1
  S  S21  1  0.72079678  0.12317718  0.56842788  1
  S  S22  1  0.27961604  0.85940219  0.39366690  1
  S  S23  1  0.29112576  0.84681064  0.62914353  1
  S  S24  1  0.38464800  0.73460900  0.27877900  1
  S  S25  1  0.38342715  0.72478548  0.51139284  1
  S  S26  1  0.61636435  0.26264889  0.45252758  1
  S  S27  1  0.63812778  0.26136752  0.68485641  1
  S  S28  1  0.19156400  0.20303200  0.29614100  1
  S  S29  1  0.19142921  0.19569491  0.52844053  1
  S  S30  1  0.80775097  0.79490330  0.43601558  1
  S  S31  1  0.82145590  0.77306253  0.66883032  1
  C  C32  1  0.46231141  0.63976482  0.74247543  1
  O  O33  1  0.50443579  0.81312879  0.76520900  1
  O  O34  1  0.39862965  0.46811819  0.76689052  1
  H  H35  1  0.39706617  0.51410508  0.80135225  1
