# generated using pymatgen
data_Cu4Mo12C(S8O)2
_symmetry_space_group_name_H-M   'P 1'
_cell_length_a   6.46503600
_cell_length_b   6.38873881
_cell_length_c   27.95633100
_cell_angle_alpha   92.75453660
_cell_angle_beta   96.62629410
_cell_angle_gamma   95.95021841
_symmetry_Int_Tables_number   1
_chemical_formula_structural   Cu4Mo12C(S8O)2
_chemical_formula_sum   'Cu4 Mo12 C1 S16 O2'
_cell_volume   1138.69222190
_cell_formula_units_Z   1
loop_
 _symmetry_equiv_pos_site_id
 _symmetry_equiv_pos_as_xyz
  1  'x, y, z'
loop_
 _atom_site_type_symbol
 _atom_site_label
 _atom_site_symmetry_multiplicity
 _atom_site_fract_x
 _atom_site_fract_y
 _atom_site_fract_z
 _atom_site_occupancy
  Cu  Cu0  1  0.94166443  0.16279114  0.46128528  1
  Cu  Cu1  1  0.98897016  0.04733131  0.63419171  1
  Cu  Cu2  1  0.05968000  0.84039500  0.27086500  1
  Cu  Cu3  1  0.05869928  0.84208652  0.50300180  1
  Mo  Mo4  1  0.21521500  0.54428600  0.34262100  1
  Mo  Mo5  1  0.21396209  0.54663673  0.57629612  1
  Mo  Mo6  1  0.78578932  0.45650065  0.38878351  1
  Mo  Mo7  1  0.78059512  0.45610740  0.62121860  1
  Mo  Mo8  1  0.40697871  0.21758876  0.37519519  1
  Mo  Mo9  1  0.40794339  0.22457803  0.60883434  1
  Mo  Mo10  1  0.59495600  0.78352200  0.35564700  1
  Mo  Mo11  1  0.59258439  0.78390524  0.58723649  1
  Mo  Mo12  1  0.53596300  0.40601700  0.30007200  1
  Mo  Mo13  1  0.53515080  0.41070898  0.53131164  1
  Mo  Mo14  1  0.46522442  0.59506223  0.43220369  1
  Mo  Mo15  1  0.46906404  0.59283806  0.66164968  1
  S  S16  1  0.14354022  0.36966794  0.41689867  1
  S  S17  1  0.13742098  0.38428828  0.65216831  1
  S  S18  1  0.85836300  0.62855700  0.31503700  1
  S  S19  1  0.85776650  0.63447676  0.54682135  1
  S  S20  1  0.72038700  0.13919400  0.33837300  1
  S  S21  1  0.71774124  0.13872779  0.56914106  1
  S  S22  1  0.27954389  0.86099309  0.39330379  1
  S  S23  1  0.28308875  0.86609393  0.62763783  1
  S  S24  1  0.38464800  0.73460900  0.27877900  1
  S  S25  1  0.38204524  0.73663951  0.51053035  1
  S  S26  1  0.61624960  0.26678320  0.45277211  1
  S  S27  1  0.62869999  0.28420997  0.68654769  1
  S  S28  1  0.19156400  0.20303200  0.29614100  1
  S  S29  1  0.19158573  0.20823047  0.52871478  1
  S  S30  1  0.80999999  0.79882256  0.43542833  1
  S  S31  1  0.81441242  0.78726901  0.66957625  1
  C  C32  1  0.43022824  0.56654216  0.76908619  1
  O  O33  1  0.45127704  0.71569314  0.74590539  1
  O  O34  1  0.40781037  0.42140324  0.79230690  1
