# generated using pymatgen
data_Cu4Mo12HCS16O
_symmetry_space_group_name_H-M   'P 1'
_cell_length_a   6.46503600
_cell_length_b   6.38873881
_cell_length_c   27.95633100
_cell_angle_alpha   92.75453660
_cell_angle_beta   96.62629410
_cell_angle_gamma   95.95021841
_symmetry_Int_Tables_number   1
_chemical_formula_structural   Cu4Mo12HCS16O
_chemical_formula_sum   'Cu4 Mo12 H1 C1 S16 O1'
_cell_volume   1138.69222190
_cell_formula_units_Z   1
loop_
 _symmetry_equiv_pos_site_id
 _symmetry_equiv_pos_as_xyz
  1  'x, y, z'
loop_
 _atom_site_type_symbol
 _atom_site_label
 _atom_site_symmetry_multiplicity
 _atom_site_fract_x
 _atom_site_fract_y
 _atom_site_fract_z
 _atom_site_occupancy
  Cu  Cu0  1  0.94174160  0.16151915  0.46113186  1
  Cu  Cu1  1  0.98319383  0.03601739  0.63201502  1
  Cu  Cu2  1  0.05968000  0.84039500  0.27086500  1
  Cu  Cu3  1  0.05732681  0.84089195  0.50323660  1
  Mo  Mo4  1  0.21521500  0.54428600  0.34262100  1
  Mo  Mo5  1  0.21576318  0.53673055  0.57667530  1
  Mo  Mo6  1  0.78659552  0.45605042  0.38882815  1
  Mo  Mo7  1  0.78013437  0.45115773  0.62077068  1
  Mo  Mo8  1  0.40745046  0.21808614  0.37512015  1
  Mo  Mo9  1  0.40428118  0.21360539  0.60883498  1
  Mo  Mo10  1  0.59495600  0.78352200  0.35564700  1
  Mo  Mo11  1  0.59030631  0.77361167  0.58762331  1
  Mo  Mo12  1  0.53596300  0.40601700  0.30007200  1
  Mo  Mo13  1  0.53527439  0.40352710  0.53212304  1
  Mo  Mo14  1  0.46517948  0.59496476  0.43219215  1
  Mo  Mo15  1  0.46306830  0.58628834  0.66183609  1
  S  S16  1  0.14367692  0.36970178  0.41695474  1
  S  S17  1  0.13420832  0.37192277  0.65271992  1
  S  S18  1  0.85836300  0.62855700  0.31503700  1
  S  S19  1  0.85818867  0.62758059  0.54685175  1
  S  S20  1  0.72038700  0.13919400  0.33837300  1
  S  S21  1  0.71606141  0.12948209  0.56900700  1
  S  S22  1  0.27951486  0.86121037  0.39334491  1
  S  S23  1  0.27773125  0.85531084  0.62789749  1
  S  S24  1  0.38464800  0.73460900  0.27877900  1
  S  S25  1  0.37947767  0.72871985  0.51086744  1
  S  S26  1  0.61676395  0.26601640  0.45261684  1
  S  S27  1  0.62672771  0.27346002  0.68421660  1
  S  S28  1  0.19156400  0.20303200  0.29614100  1
  S  S29  1  0.19282312  0.20014674  0.52877594  1
  S  S30  1  0.81018491  0.79779321  0.43553841  1
  S  S31  1  0.80725653  0.78178090  0.66971211  1
  C  C32  1  0.68108018  0.13486717  0.73990903  1
  H  H33  1  0.90409236  0.13049156  0.78986171  1
  O  O34  1  0.86946442  0.20118089  0.75918497  1
