# generated using pymatgen
data_Cu4Mo12HCS16O
_symmetry_space_group_name_H-M   'P 1'
_cell_length_a   6.46503600
_cell_length_b   6.38873881
_cell_length_c   27.95633100
_cell_angle_alpha   92.75453660
_cell_angle_beta   96.62629410
_cell_angle_gamma   95.95021841
_symmetry_Int_Tables_number   1
_chemical_formula_structural   Cu4Mo12HCS16O
_chemical_formula_sum   'Cu4 Mo12 H1 C1 S16 O1'
_cell_volume   1138.69222190
_cell_formula_units_Z   1
loop_
 _symmetry_equiv_pos_site_id
 _symmetry_equiv_pos_as_xyz
  1  'x, y, z'
loop_
 _atom_site_type_symbol
 _atom_site_label
 _atom_site_symmetry_multiplicity
 _atom_site_fract_x
 _atom_site_fract_y
 _atom_site_fract_z
 _atom_site_occupancy
  Cu  Cu0  1  0.93984560  0.15585309  0.46014712  1
  Cu  Cu1  1  0.88475403  0.06799427  0.65128124  1
  Cu  Cu2  1  0.05968000  0.84039500  0.27086500  1
  Cu  Cu3  1  0.05438738  0.83128001  0.50356132  1
  Mo  Mo4  1  0.21521500  0.54428600  0.34262100  1
  Mo  Mo5  1  0.20905908  0.52631804  0.57691932  1
  Mo  Mo6  1  0.78462072  0.45588657  0.38879817  1
  Mo  Mo7  1  0.77769053  0.43515819  0.61962359  1
  Mo  Mo8  1  0.40639794  0.21765111  0.37504650  1
  Mo  Mo9  1  0.40284930  0.20196316  0.60781482  1
  Mo  Mo10  1  0.59495600  0.78352200  0.35564700  1
  Mo  Mo11  1  0.58758105  0.76765406  0.58864564  1
  Mo  Mo12  1  0.53596300  0.40601700  0.30007200  1
  Mo  Mo13  1  0.52927107  0.39629340  0.53167830  1
  Mo  Mo14  1  0.46356290  0.59366565  0.43219494  1
  Mo  Mo15  1  0.46247020  0.57624840  0.66809586  1
  S  S16  1  0.14187345  0.36850668  0.41674252  1
  S  S17  1  0.13502705  0.34839707  0.65043185  1
  S  S18  1  0.85836300  0.62855700  0.31503700  1
  S  S19  1  0.85396329  0.61871395  0.54715453  1
  S  S20  1  0.72038700  0.13919400  0.33837300  1
  S  S21  1  0.71061574  0.11814472  0.56673850  1
  S  S22  1  0.27911266  0.86060349  0.39343454  1
  S  S23  1  0.27900819  0.84226884  0.62831826  1
  S  S24  1  0.38464800  0.73460900  0.27877900  1
  S  S25  1  0.37753897  0.72301892  0.51157082  1
  S  S26  1  0.61576392  0.26477567  0.45249479  1
  S  S27  1  0.61950316  0.24938367  0.68464166  1
  S  S28  1  0.19156400  0.20303200  0.29614100  1
  S  S29  1  0.18554825  0.19221034  0.52793413  1
  S  S30  1  0.80856928  0.79570099  0.43582166  1
  S  S31  1  0.81846232  0.74810898  0.67043602  1
  C  C32  1  0.47776894  0.67370233  0.73358948  1
  H  H33  1  0.43628498  0.67211278  0.80133888  1
  O  O34  1  0.50916061  0.74942457  0.77614665  1
