# generated using pymatgen
data_Cu4Mo12HC(S8O)2
_symmetry_space_group_name_H-M   'P 1'
_cell_length_a   6.46503600
_cell_length_b   6.38873881
_cell_length_c   27.95633100
_cell_angle_alpha   92.75453660
_cell_angle_beta   96.62629410
_cell_angle_gamma   95.95021841
_symmetry_Int_Tables_number   1
_chemical_formula_structural   Cu4Mo12HC(S8O)2
_chemical_formula_sum   'Cu4 Mo12 H1 C1 S16 O2'
_cell_volume   1138.69222190
_cell_formula_units_Z   1
loop_
 _symmetry_equiv_pos_site_id
 _symmetry_equiv_pos_as_xyz
  1  'x, y, z'
loop_
 _atom_site_type_symbol
 _atom_site_label
 _atom_site_symmetry_multiplicity
 _atom_site_fract_x
 _atom_site_fract_y
 _atom_site_fract_z
 _atom_site_occupancy
  Cu  Cu0  1  0.94261532  0.15997526  0.46137674  1
  Cu  Cu1  1  0.90826733  0.10425994  0.66576299  1
  Cu  Cu2  1  0.05968000  0.84039500  0.27086500  1
  Cu  Cu3  1  0.05758455  0.83668393  0.50387843  1
  Mo  Mo4  1  0.21521500  0.54428600  0.34262100  1
  Mo  Mo5  1  0.21384217  0.53673108  0.57762291  1
  Mo  Mo6  1  0.78475544  0.45624917  0.38897607  1
  Mo  Mo7  1  0.78775192  0.44385792  0.62012636  1
  Mo  Mo8  1  0.40629224  0.21777225  0.37524514  1
  Mo  Mo9  1  0.41205393  0.21026478  0.60909476  1
  Mo  Mo10  1  0.59495600  0.78352200  0.35564700  1
  Mo  Mo11  1  0.59291141  0.77384451  0.58971298  1
  Mo  Mo12  1  0.53596300  0.40601700  0.30007200  1
  Mo  Mo13  1  0.53400323  0.40124031  0.53177987  1
  Mo  Mo14  1  0.46397219  0.59425461  0.43262879  1
  Mo  Mo15  1  0.47840305  0.58154363  0.66663933  1
  S  S16  1  0.14233800  0.36929676  0.41699050  1
  S  S17  1  0.14739221  0.36684408  0.65189407  1
  S  S18  1  0.85836300  0.62855700  0.31503700  1
  S  S19  1  0.85768014  0.62464466  0.54772067  1
  S  S20  1  0.72038700  0.13919400  0.33837300  1
  S  S21  1  0.71868137  0.12884713  0.56843748  1
  S  S22  1  0.28005194  0.86061042  0.39357378  1
  S  S23  1  0.28987496  0.85359454  0.63023567  1
  S  S24  1  0.38464800  0.73460900  0.27877900  1
  S  S25  1  0.38091780  0.72812347  0.51252369  1
  S  S26  1  0.61585925  0.26497116  0.45275205  1
  S  S27  1  0.62685327  0.26258752  0.68701632  1
  S  S28  1  0.19156400  0.20303200  0.29614100  1
  S  S29  1  0.19025157  0.19999576  0.52916214  1
  S  S30  1  0.80919375  0.79642754  0.43617700  1
  S  S31  1  0.82315884  0.76843142  0.66989821  1
  C  C32  1  0.49076793  0.62749979  0.78070926  1
  O  O33  1  0.48449823  0.44229638  0.79241981  1
  O  O34  1  0.46772774  0.69428127  0.73766407  1
  H  H35  1  0.51845764  0.75956021  0.80909818  1
