# generated using pymatgen
data_Cu4Mo12H(S8N)2
_symmetry_space_group_name_H-M   'P 1'
_cell_length_a   6.46503600
_cell_length_b   6.38873881
_cell_length_c   27.95633100
_cell_angle_alpha   92.75453660
_cell_angle_beta   96.62629410
_cell_angle_gamma   95.95021841
_symmetry_Int_Tables_number   1
_chemical_formula_structural   Cu4Mo12H(S8N)2
_chemical_formula_sum   'Cu4 Mo12 H1 S16 N2'
_cell_volume   1138.69222190
_cell_formula_units_Z   1
loop_
 _symmetry_equiv_pos_site_id
 _symmetry_equiv_pos_as_xyz
  1  'x, y, z'
loop_
 _atom_site_type_symbol
 _atom_site_label
 _atom_site_symmetry_multiplicity
 _atom_site_fract_x
 _atom_site_fract_y
 _atom_site_fract_z
 _atom_site_occupancy
  Cu  Cu0  1  0.93840404  0.16002227  0.46031426  1
  Cu  Cu1  1  0.91746463  0.13417612  0.68703416  1
  Cu  Cu2  1  0.05968000  0.84039500  0.27086500  1
  Cu  Cu3  1  0.05083145  0.83666133  0.50324275  1
  Mo  Mo4  1  0.21521500  0.54428600  0.34262100  1
  Mo  Mo5  1  0.20414744  0.54085151  0.57506180  1
  Mo  Mo6  1  0.78373351  0.45571979  0.38876427  1
  Mo  Mo7  1  0.77485062  0.44723951  0.61978329  1
  Mo  Mo8  1  0.40541618  0.21676742  0.37497031  1
  Mo  Mo9  1  0.39971308  0.21646285  0.60774114  1
  Mo  Mo10  1  0.59495600  0.78352200  0.35564700  1
  Mo  Mo11  1  0.58270591  0.77810370  0.58707735  1
  Mo  Mo12  1  0.53596300  0.40601700  0.30007200  1
  Mo  Mo13  1  0.52680445  0.40179529  0.53044334  1
  Mo  Mo14  1  0.46239970  0.59279307  0.43207722  1
  Mo  Mo15  1  0.46173120  0.58757393  0.66029938  1
  S  S16  1  0.14090571  0.36802560  0.41652014  1
  S  S17  1  0.13407833  0.36893636  0.64971876  1
  S  S18  1  0.85836300  0.62855700  0.31503700  1
  S  S19  1  0.84810207  0.62641628  0.54632542  1
  S  S20  1  0.72038700  0.13919400  0.33837300  1
  S  S21  1  0.71032620  0.13338805  0.56887679  1
  S  S22  1  0.27898181  0.86037680  0.39320757  1
  S  S23  1  0.27164364  0.85958955  0.62731103  1
  S  S24  1  0.38464800  0.73460900  0.27877900  1
  S  S25  1  0.37340867  0.73008156  0.51029545  1
  S  S26  1  0.61326657  0.26386996  0.45239948  1
  S  S27  1  0.60743541  0.27440219  0.68650062  1
  S  S28  1  0.19156400  0.20303200  0.29614100  1
  S  S29  1  0.18219403  0.19997301  0.52813545  1
  S  S30  1  0.80707891  0.79640866  0.43560067  1
  S  S31  1  0.80043158  0.78782690  0.66582995  1
  N  N32  1  0.04918157  0.13637467  0.75280161  1
  N  N33  1  0.96089354  0.11678891  0.78765250  1
  H  H34  1  0.05276081  0.11857357  0.82142530  1
