# generated using pymatgen
data_Cu4Mo12C(S8O)2
_symmetry_space_group_name_H-M   'P 1'
_cell_length_a   6.46503600
_cell_length_b   6.38873881
_cell_length_c   27.95633100
_cell_angle_alpha   92.75453660
_cell_angle_beta   96.62629410
_cell_angle_gamma   95.95021841
_symmetry_Int_Tables_number   1
_chemical_formula_structural   Cu4Mo12C(S8O)2
_chemical_formula_sum   'Cu4 Mo12 C1 S16 O2'
_cell_volume   1138.69222190
_cell_formula_units_Z   1
loop_
 _symmetry_equiv_pos_site_id
 _symmetry_equiv_pos_as_xyz
  1  'x, y, z'
loop_
 _atom_site_type_symbol
 _atom_site_label
 _atom_site_symmetry_multiplicity
 _atom_site_fract_x
 _atom_site_fract_y
 _atom_site_fract_z
 _atom_site_occupancy
  Cu  Cu0  1  0.94304316  0.16526104  0.46086783  1
  Cu  Cu1  1  0.91087674  0.11776000  0.66592031  1
  Cu  Cu2  1  0.05968000  0.84039500  0.27086500  1
  Cu  Cu3  1  0.06173103  0.84720402  0.50286785  1
  Mo  Mo4  1  0.21521500  0.54428600  0.34262100  1
  Mo  Mo5  1  0.21968577  0.54688683  0.57613728  1
  Mo  Mo6  1  0.78778516  0.45635364  0.38877128  1
  Mo  Mo7  1  0.79013355  0.45570225  0.61834020  1
  Mo  Mo8  1  0.40720954  0.21820468  0.37497751  1
  Mo  Mo9  1  0.41534478  0.22509434  0.60799078  1
  Mo  Mo10  1  0.59495600  0.78352200  0.35564700  1
  Mo  Mo11  1  0.59712202  0.78394449  0.58721783  1
  Mo  Mo12  1  0.53596300  0.40601700  0.30007200  1
  Mo  Mo13  1  0.53779847  0.41035202  0.53026086  1
  Mo  Mo14  1  0.46633598  0.59637463  0.43214458  1
  Mo  Mo15  1  0.48015610  0.59462623  0.66129757  1
  S  S16  1  0.14490651  0.37147460  0.41687651  1
  S  S17  1  0.15042959  0.37624707  0.65113813  1
  S  S18  1  0.85836300  0.62855700  0.31503700  1
  S  S19  1  0.86146669  0.63379668  0.54554220  1
  S  S20  1  0.72038700  0.13919400  0.33837300  1
  S  S21  1  0.72309475  0.13997153  0.56738207  1
  S  S22  1  0.27953591  0.86156000  0.39315756  1
  S  S23  1  0.29041877  0.86668617  0.62793949  1
  S  S24  1  0.38464800  0.73460900  0.27877900  1
  S  S25  1  0.38384740  0.73706671  0.51075470  1
  S  S26  1  0.61684645  0.26636958  0.45214239  1
  S  S27  1  0.62985831  0.27904624  0.68628929  1
  S  S28  1  0.19156400  0.20303200  0.29614100  1
  S  S29  1  0.19394580  0.20811223  0.52839831  1
  S  S30  1  0.81167462  0.79869130  0.43528476  1
  S  S31  1  0.82370863  0.78129931  0.66820355  1
  C  C32  1  0.44433428  0.57661313  0.76815252  1
  O  O33  1  0.46686196  0.72597528  0.74497464  1
  O  O34  1  0.42099335  0.42922652  0.79050134  1
