# generated using pymatgen
data_Cu2Mo6S8N
_symmetry_space_group_name_H-M   'P 1'
_cell_length_a   6.46503600
_cell_length_b   6.38873881
_cell_length_c   27.95633100
_cell_angle_alpha   92.75453660
_cell_angle_beta   96.62629410
_cell_angle_gamma   95.95021841
_symmetry_Int_Tables_number   1
_chemical_formula_structural   Cu2Mo6S8N
_chemical_formula_sum   'Cu4 Mo12 S16 N2'
_cell_volume   1138.69222190
_cell_formula_units_Z   2
loop_
 _symmetry_equiv_pos_site_id
 _symmetry_equiv_pos_as_xyz
  1  'x, y, z'
loop_
 _atom_site_type_symbol
 _atom_site_label
 _atom_site_symmetry_multiplicity
 _atom_site_fract_x
 _atom_site_fract_y
 _atom_site_fract_z
 _atom_site_occupancy
  Cu  Cu0  1  0.93717705  0.16185879  0.46081791  1
  Cu  Cu1  1  0.97682216  0.04082963  0.63594479  1
  Cu  Cu2  1  0.05968000  0.84039500  0.27086500  1
  Cu  Cu3  1  0.04934120  0.83896039  0.50356498  1
  Mo  Mo4  1  0.21521500  0.54428600  0.34262100  1
  Mo  Mo5  1  0.20147412  0.54288871  0.57619761  1
  Mo  Mo6  1  0.78361514  0.45625076  0.38887347  1
  Mo  Mo7  1  0.76494738  0.45205888  0.62152974  1
  Mo  Mo8  1  0.40588554  0.21763863  0.37519567  1
  Mo  Mo9  1  0.39341775  0.21974249  0.60871724  1
  Mo  Mo10  1  0.59495600  0.78352200  0.35564700  1
  Mo  Mo11  1  0.57856715  0.78044228  0.58771372  1
  Mo  Mo12  1  0.53596300  0.40601700  0.30007200  1
  Mo  Mo13  1  0.52419321  0.40826502  0.53141665  1
  Mo  Mo14  1  0.46211745  0.59467808  0.43225129  1
  Mo  Mo15  1  0.45246017  0.58506367  0.66156192  1
  S  S16  1  0.14100822  0.36865069  0.41669105  1
  S  S17  1  0.12141952  0.37951840  0.65191919  1
  S  S18  1  0.85836300  0.62855700  0.31503700  1
  S  S19  1  0.84583446  0.63302613  0.54740417  1
  S  S20  1  0.72038700  0.13919400  0.33837300  1
  S  S21  1  0.70445536  0.13510099  0.56947805  1
  S  S22  1  0.27857854  0.86105316  0.39316678  1
  S  S23  1  0.26900694  0.86127418  0.62824069  1
  S  S24  1  0.38464800  0.73460900  0.27877900  1
  S  S25  1  0.37205656  0.73398874  0.51042880  1
  S  S26  1  0.61274271  0.26677426  0.45303901  1
  S  S27  1  0.61073440  0.28001354  0.68671295  1
  S  S28  1  0.19156400  0.20303200  0.29614100  1
  S  S29  1  0.18091970  0.20529861  0.52856700  1
  S  S30  1  0.80658186  0.79828336  0.43555989  1
  S  S31  1  0.79511016  0.78208159  0.67050888  1
  N  N32  1  0.01794741  0.14011805  0.76174661  1
  N  N33  1  0.91672294  0.09606348  0.78990546  1
