# generated using pymatgen
data_Fe4Mo12H(S8N)2
_symmetry_space_group_name_H-M   'P 1'
_cell_length_a   6.48394610
_cell_length_b   6.41202525
_cell_length_c   27.90841600
_cell_angle_alpha   93.69337570
_cell_angle_beta   94.75362703
_cell_angle_gamma   97.43854579
_symmetry_Int_Tables_number   1
_chemical_formula_structural   Fe4Mo12H(S8N)2
_chemical_formula_sum   'Fe4 Mo12 H1 S16 N2'
_cell_volume   1143.25638445
_cell_formula_units_Z   1
loop_
 _symmetry_equiv_pos_site_id
 _symmetry_equiv_pos_as_xyz
  1  'x, y, z'
loop_
 _atom_site_type_symbol
 _atom_site_label
 _atom_site_symmetry_multiplicity
 _atom_site_fract_x
 _atom_site_fract_y
 _atom_site_fract_z
 _atom_site_occupancy
  Fe  Fe0  1  0.92811135  0.15797248  0.46445572  1
  Fe  Fe1  1  0.88121491  0.13641700  0.68782547  1
  Fe  Fe2  1  0.06524100  0.84263700  0.26375600  1
  Fe  Fe3  1  0.04312630  0.83293649  0.49819933  1
  Mo  Mo4  1  0.21872260  0.53832878  0.34308426  1
  Mo  Mo5  1  0.19283692  0.53122442  0.57498343  1
  Mo  Mo6  1  0.77895683  0.45943928  0.38756513  1
  Mo  Mo7  1  0.75218526  0.44842333  0.61869434  1
  Mo  Mo8  1  0.40573117  0.21677260  0.37455534  1
  Mo  Mo9  1  0.38085516  0.21092495  0.60744891  1
  Mo  Mo10  1  0.59152026  0.78233311  0.35567394  1
  Mo  Mo11  1  0.56657883  0.77094255  0.58714193  1
  Mo  Mo12  1  0.54135300  0.40905600  0.30082200  1
  Mo  Mo13  1  0.51841415  0.39907159  0.53138982  1
  Mo  Mo14  1  0.45255587  0.58982665  0.43056599  1
  Mo  Mo15  1  0.43189089  0.58185431  0.66054200  1
  S  S16  1  0.12845792  0.35771780  0.41639434  1
  S  S17  1  0.10465460  0.35649177  0.64953284  1
  S  S18  1  0.86842500  0.63937200  0.31349000  1
  S  S19  1  0.84322237  0.62955069  0.54561030  1
  S  S20  1  0.72301900  0.14241800  0.33608800  1
  S  S21  1  0.69421733  0.13128955  0.56746228  1
  S  S22  1  0.27504521  0.85670322  0.39442158  1
  S  S23  1  0.25213915  0.85041360  0.62786242  1
  S  S24  1  0.38478400  0.73178900  0.28021200  1
  S  S25  1  0.36172126  0.72218158  0.51089709  1
  S  S26  1  0.60899569  0.26695261  0.45090112  1
  S  S27  1  0.57998468  0.27425059  0.68551327  1
  S  S28  1  0.20162900  0.19284800  0.29629700  1
  S  S29  1  0.17716594  0.18444828  0.52742894  1
  S  S30  1  0.79486057  0.80651458  0.43521244  1
  S  S31  1  0.77140673  0.78919909  0.66572516  1
  N  N32  1  0.93939072  0.13827430  0.74869660  1
  N  N33  1  0.90812760  0.11406644  0.78957189  1
  H  H34  1  0.02429120  0.15299569  0.81802152  1
