# generated using pymatgen
data_Cu4Mo12HS16
_symmetry_space_group_name_H-M   'P 1'
_cell_length_a   6.46503600
_cell_length_b   6.38873881
_cell_length_c   27.95633100
_cell_angle_alpha   92.75453660
_cell_angle_beta   96.62629410
_cell_angle_gamma   95.95021841
_symmetry_Int_Tables_number   1
_chemical_formula_structural   Cu4Mo12HS16
_chemical_formula_sum   'Cu4 Mo12 H1 S16'
_cell_volume   1138.69222190
_cell_formula_units_Z   1
loop_
 _symmetry_equiv_pos_site_id
 _symmetry_equiv_pos_as_xyz
  1  'x, y, z'
loop_
 _atom_site_type_symbol
 _atom_site_label
 _atom_site_symmetry_multiplicity
 _atom_site_fract_x
 _atom_site_fract_y
 _atom_site_fract_z
 _atom_site_occupancy
  Cu  Cu0  1  0.93714878  0.15641584  0.46097202  1
  Cu  Cu1  1  0.98190571  0.03456594  0.63068649  1
  Cu  Cu2  1  0.05968000  0.84039500  0.27086500  1
  Cu  Cu3  1  0.05107759  0.83119349  0.50317473  1
  Mo  Mo4  1  0.21521500  0.54428600  0.34262100  1
  Mo  Mo5  1  0.20311071  0.53730964  0.57619132  1
  Mo  Mo6  1  0.77885634  0.45550131  0.38867755  1
  Mo  Mo7  1  0.77286412  0.44447369  0.62143513  1
  Mo  Mo8  1  0.40402111  0.21694258  0.37522586  1
  Mo  Mo9  1  0.39991354  0.21208082  0.60856299  1
  Mo  Mo10  1  0.59495600  0.78352200  0.35564700  1
  Mo  Mo11  1  0.58420130  0.77357191  0.58764965  1
  Mo  Mo12  1  0.53596300  0.40601700  0.30007200  1
  Mo  Mo13  1  0.52629804  0.40079348  0.53193452  1
  Mo  Mo14  1  0.46002682  0.59178162  0.43173527  1
  Mo  Mo15  1  0.45912879  0.58246730  0.66383793  1
  S  S16  1  0.13766957  0.36700835  0.41657680  1
  S  S17  1  0.12862038  0.37303266  0.65122447  1
  S  S18  1  0.85836300  0.62855700  0.31503700  1
  S  S19  1  0.84895676  0.62350394  0.54716491  1
  S  S20  1  0.72038700  0.13919400  0.33837300  1
  S  S21  1  0.70950082  0.12745767  0.56871263  1
  S  S22  1  0.27769975  0.86009895  0.39336304  1
  S  S23  1  0.27633036  0.85409481  0.62804819  1
  S  S24  1  0.38464800  0.73460900  0.27877900  1
  S  S25  1  0.37397448  0.72697668  0.51075081  1
  S  S26  1  0.61186971  0.26366060  0.45292562  1
  S  S27  1  0.62026464  0.26997472  0.68653261  1
  S  S28  1  0.19156400  0.20303200  0.29614100  1
  S  S29  1  0.18307930  0.19934479  0.52869802  1
  S  S30  1  0.80518877  0.79548349  0.43572730  1
  S  S31  1  0.80789134  0.77878907  0.66915036  1
  H  H32  1  0.44313015  0.65673995  0.72697034  1
