# generated using pymatgen
data_Cu4Mo12C(S8O)2
_symmetry_space_group_name_H-M   'P 1'
_cell_length_a   6.46503600
_cell_length_b   6.38873881
_cell_length_c   27.95633100
_cell_angle_alpha   92.75453660
_cell_angle_beta   96.62629410
_cell_angle_gamma   95.95021841
_symmetry_Int_Tables_number   1
_chemical_formula_structural   Cu4Mo12C(S8O)2
_chemical_formula_sum   'Cu4 Mo12 C1 S16 O2'
_cell_volume   1138.69222190
_cell_formula_units_Z   1
loop_
 _symmetry_equiv_pos_site_id
 _symmetry_equiv_pos_as_xyz
  1  'x, y, z'
loop_
 _atom_site_type_symbol
 _atom_site_label
 _atom_site_symmetry_multiplicity
 _atom_site_fract_x
 _atom_site_fract_y
 _atom_site_fract_z
 _atom_site_occupancy
  Cu  Cu0  1  0.93857914  0.16461792  0.46066658  1
  Cu  Cu1  1  0.90229978  0.08396348  0.64983343  1
  Cu  Cu2  1  0.05968000  0.84039500  0.27086500  1
  Cu  Cu3  1  0.05331877  0.84332023  0.50343263  1
  Mo  Mo4  1  0.21521500  0.54428600  0.34262100  1
  Mo  Mo5  1  0.20688694  0.54382728  0.57648089  1
  Mo  Mo6  1  0.78621354  0.45655402  0.38881154  1
  Mo  Mo7  1  0.77490560  0.45214742  0.61931192  1
  Mo  Mo8  1  0.40678594  0.21815910  0.37505800  1
  Mo  Mo9  1  0.40020176  0.22083603  0.60793736  1
  Mo  Mo10  1  0.59495600  0.78352200  0.35564700  1
  Mo  Mo11  1  0.58281499  0.78083050  0.58795807  1
  Mo  Mo12  1  0.53596300  0.40601700  0.30007200  1
  Mo  Mo13  1  0.52744968  0.40994688  0.53052916  1
  Mo  Mo14  1  0.46379295  0.59631724  0.43232808  1
  Mo  Mo15  1  0.46371090  0.58382936  0.66149730  1
  S  S16  1  0.14301728  0.37008963  0.41675510  1
  S  S17  1  0.13237353  0.37358825  0.65122908  1
  S  S18  1  0.85836300  0.62855700  0.31503700  1
  S  S19  1  0.85018646  0.63477811  0.54658898  1
  S  S20  1  0.72038700  0.13919400  0.33837300  1
  S  S21  1  0.70885987  0.13491695  0.56744678  1
  S  S22  1  0.27875908  0.86158016  0.39315394  1
  S  S23  1  0.27786049  0.86188778  0.62909326  1
  S  S24  1  0.38464800  0.73460900  0.27877900  1
  S  S25  1  0.37500587  0.73534742  0.51079922  1
  S  S26  1  0.61384728  0.26727429  0.45255684  1
  S  S27  1  0.61974814  0.27174875  0.68522874  1
  S  S28  1  0.19156400  0.20303200  0.29614100  1
  S  S29  1  0.18307834  0.20704301  0.52834327  1
  S  S30  1  0.80874196  0.79894377  0.43539801  1
  S  S31  1  0.80652070  0.76987329  0.67088177  1
  C  C32  1  0.94856369  0.14582827  0.77933919  1
  O  O33  1  0.00396401  0.32443393  0.77615280  1
  O  O34  1  0.89374570  0.96664588  0.78230887  1
