# generated using pymatgen
data_Cu4Mo12HC(S8O)2
_symmetry_space_group_name_H-M   'P 1'
_cell_length_a   6.46503600
_cell_length_b   6.38873881
_cell_length_c   27.95633100
_cell_angle_alpha   92.75453660
_cell_angle_beta   96.62629410
_cell_angle_gamma   95.95021841
_symmetry_Int_Tables_number   1
_chemical_formula_structural   Cu4Mo12HC(S8O)2
_chemical_formula_sum   'Cu4 Mo12 H1 C1 S16 O2'
_cell_volume   1138.69222190
_cell_formula_units_Z   1
loop_
 _symmetry_equiv_pos_site_id
 _symmetry_equiv_pos_as_xyz
  1  'x, y, z'
loop_
 _atom_site_type_symbol
 _atom_site_label
 _atom_site_symmetry_multiplicity
 _atom_site_fract_x
 _atom_site_fract_y
 _atom_site_fract_z
 _atom_site_occupancy
  Cu  Cu0  1  0.94295443  0.15939558  0.46099166  1
  Cu  Cu1  1  0.91640195  0.09361357  0.66077706  1
  Cu  Cu2  1  0.05968000  0.84039500  0.27086500  1
  Cu  Cu3  1  0.06142209  0.83663475  0.50296293  1
  Mo  Mo4  1  0.21521500  0.54428600  0.34262100  1
  Mo  Mo5  1  0.21689368  0.53818643  0.57655060  1
  Mo  Mo6  1  0.78477767  0.45612327  0.38884924  1
  Mo  Mo7  1  0.79582072  0.44300162  0.61923740  1
  Mo  Mo8  1  0.40614826  0.21777641  0.37522496  1
  Mo  Mo9  1  0.41673299  0.20508787  0.60807665  1
  Mo  Mo10  1  0.59495600  0.78352200  0.35564700  1
  Mo  Mo11  1  0.60108071  0.77763175  0.58870451  1
  Mo  Mo12  1  0.53596300  0.40601700  0.30007200  1
  Mo  Mo13  1  0.53616290  0.40264285  0.53145129  1
  Mo  Mo14  1  0.46471235  0.59444796  0.43246980  1
  Mo  Mo15  1  0.48356397  0.57324772  0.66511514  1
  S  S16  1  0.14267417  0.37012219  0.41701953  1
  S  S17  1  0.15261754  0.36525596  0.65060966  1
  S  S18  1  0.85836300  0.62855700  0.31503700  1
  S  S19  1  0.86216909  0.62432054  0.54691053  1
  S  S20  1  0.72038700  0.13919400  0.33837300  1
  S  S21  1  0.72183719  0.12934883  0.56722254  1
  S  S22  1  0.27969714  0.86069843  0.39348767  1
  S  S23  1  0.29969729  0.85003332  0.63020671  1
  S  S24  1  0.38464800  0.73460900  0.27877900  1
  S  S25  1  0.38557973  0.73129132  0.51212293  1
  S  S26  1  0.61638201  0.26501273  0.45256771  1
  S  S27  1  0.63687555  0.25595775  0.68473018  1
  S  S28  1  0.19156400  0.20303200  0.29614100  1
  S  S29  1  0.19138650  0.20097451  0.52868990  1
  S  S30  1  0.80973055  0.79655292  0.43599637  1
  S  S31  1  0.82828223  0.76319197  0.67014858  1
  C  C32  1  0.47246651  0.62932940  0.74352332  1
  O  O33  1  0.49897929  0.80464004  0.76459188  1
  O  O34  1  0.43345683  0.45262996  0.76795929  1
  H  H35  1  0.43524802  0.49316731  0.80284536  1
