# generated using pymatgen
data_Fe4Mo12CS16O
_symmetry_space_group_name_H-M   'P 1'
_cell_length_a   6.48394610
_cell_length_b   6.41202525
_cell_length_c   27.90841600
_cell_angle_alpha   93.69337570
_cell_angle_beta   94.75362703
_cell_angle_gamma   97.43854579
_symmetry_Int_Tables_number   1
_chemical_formula_structural   Fe4Mo12CS16O
_chemical_formula_sum   'Fe4 Mo12 C1 S16 O1'
_cell_volume   1143.25638445
_cell_formula_units_Z   1
loop_
 _symmetry_equiv_pos_site_id
 _symmetry_equiv_pos_as_xyz
  1  'x, y, z'
loop_
 _atom_site_type_symbol
 _atom_site_label
 _atom_site_symmetry_multiplicity
 _atom_site_fract_x
 _atom_site_fract_y
 _atom_site_fract_z
 _atom_site_occupancy
  Fe  Fe0  1  0.92421891  0.15280945  0.46010113  1
  Fe  Fe1  1  0.82871067  0.08317555  0.64385780  1
  Fe  Fe2  1  0.06524100  0.84263700  0.26375600  1
  Fe  Fe3  1  0.04886921  0.83013088  0.50219418  1
  Mo  Mo4  1  0.22202173  0.53934552  0.34359593  1
  Mo  Mo5  1  0.18882855  0.52352078  0.57530169  1
  Mo  Mo6  1  0.78294670  0.45983235  0.38769328  1
  Mo  Mo7  1  0.75051058  0.44450605  0.61794839  1
  Mo  Mo8  1  0.40793757  0.21851126  0.37496023  1
  Mo  Mo9  1  0.37838513  0.19764068  0.60642823  1
  Mo  Mo10  1  0.59425862  0.78102610  0.35586964  1
  Mo  Mo11  1  0.56274828  0.76731492  0.58729025  1
  Mo  Mo12  1  0.54135300  0.40905600  0.30082200  1
  Mo  Mo13  1  0.51634353  0.39605754  0.53101320  1
  Mo  Mo14  1  0.45581102  0.59237154  0.43152053  1
  Mo  Mo15  1  0.43019803  0.56508691  0.66316171  1
  S  S16  1  0.13211216  0.36012211  0.41653881  1
  S  S17  1  0.10140074  0.34155540  0.64740900  1
  S  S18  1  0.86842500  0.63937200  0.31349000  1
  S  S19  1  0.84072793  0.63002969  0.54622193  1
  S  S20  1  0.72301900  0.14241800  0.33608800  1
  S  S21  1  0.69293642  0.11844227  0.56425372  1
  S  S22  1  0.27928801  0.85823426  0.39495432  1
  S  S23  1  0.25211447  0.83851139  0.62893715  1
  S  S24  1  0.38478400  0.73178900  0.28021200  1
  S  S25  1  0.35975491  0.71641436  0.51104633  1
  S  S26  1  0.61283687  0.26992836  0.45133282  1
  S  S27  1  0.59015810  0.25163586  0.68411869  1
  S  S28  1  0.20162900  0.19284800  0.29629700  1
  S  S29  1  0.17318166  0.18194141  0.52508662  1
  S  S30  1  0.80056204  0.80274414  0.43747887  1
  S  S31  1  0.77780768  0.76411016  0.66959517  1
  O  O32  1  0.41418795  0.61471522  0.77744701  1
  C  C33  1  0.41436589  0.61072255  0.73568910  1
