# generated using pymatgen
data_Cu4Mo12CS16O
_symmetry_space_group_name_H-M   'P 1'
_cell_length_a   6.46503600
_cell_length_b   6.38873881
_cell_length_c   27.95633100
_cell_angle_alpha   92.75453660
_cell_angle_beta   96.62629410
_cell_angle_gamma   95.95021841
_symmetry_Int_Tables_number   1
_chemical_formula_structural   Cu4Mo12CS16O
_chemical_formula_sum   'Cu4 Mo12 C1 S16 O1'
_cell_volume   1138.69222190
_cell_formula_units_Z   1
loop_
 _symmetry_equiv_pos_site_id
 _symmetry_equiv_pos_as_xyz
  1  'x, y, z'
loop_
 _atom_site_type_symbol
 _atom_site_label
 _atom_site_symmetry_multiplicity
 _atom_site_fract_x
 _atom_site_fract_y
 _atom_site_fract_z
 _atom_site_occupancy
  Cu  Cu0  1  0.93804579  0.15785375  0.46083560  1
  Cu  Cu1  1  0.95844599  0.03731628  0.63215636  1
  Cu  Cu2  1  0.05968000  0.84039500  0.27086500  1
  Cu  Cu3  1  0.05317638  0.83663697  0.50369542  1
  Mo  Mo4  1  0.21521500  0.54428600  0.34262100  1
  Mo  Mo5  1  0.20674766  0.53709072  0.57685472  1
  Mo  Mo6  1  0.78066467  0.45612273  0.38875083  1
  Mo  Mo7  1  0.77361250  0.44453846  0.62124573  1
  Mo  Mo8  1  0.40530093  0.21779319  0.37528204  1
  Mo  Mo9  1  0.40039294  0.21236102  0.60862642  1
  Mo  Mo10  1  0.59495600  0.78352200  0.35564700  1
  Mo  Mo11  1  0.58454997  0.77331961  0.58827655  1
  Mo  Mo12  1  0.53596300  0.40601700  0.30007200  1
  Mo  Mo13  1  0.52812714  0.40354368  0.53213842  1
  Mo  Mo14  1  0.46126823  0.59333184  0.43193837  1
  Mo  Mo15  1  0.45814167  0.58096014  0.66541579  1
  S  S16  1  0.13941306  0.36806484  0.41673558  1
  S  S17  1  0.12831520  0.36691762  0.65102554  1
  S  S18  1  0.85836300  0.62855700  0.31503700  1
  S  S19  1  0.85151473  0.62634508  0.54735271  1
  S  S20  1  0.72038700  0.13919400  0.33837300  1
  S  S21  1  0.70840273  0.12665127  0.56800073  1
  S  S22  1  0.27799961  0.86069572  0.39341227  1
  S  S23  1  0.27416374  0.85444938  0.62869141  1
  S  S24  1  0.38464800  0.73460900  0.27877900  1
  S  S25  1  0.37577484  0.72877586  0.51107151  1
  S  S26  1  0.61366129  0.26579925  0.45291799  1
  S  S27  1  0.62261052  0.26465792  0.68522420  1
  S  S28  1  0.19156400  0.20303200  0.29614100  1
  S  S29  1  0.18491581  0.20072570  0.52866018  1
  S  S30  1  0.80645492  0.79686823  0.43570151  1
  S  S31  1  0.80886144  0.77210021  0.67052344  1
  O  O32  1  0.45646214  0.61673499  0.77923640  1
  C  C33  1  0.45434947  0.61791716  0.73735463  1
