# generated using pymatgen
data_Cu4Mo12HS16
_symmetry_space_group_name_H-M   'P 1'
_cell_length_a   6.46503600
_cell_length_b   6.38873881
_cell_length_c   27.95633100
_cell_angle_alpha   92.75453660
_cell_angle_beta   96.62629410
_cell_angle_gamma   95.95021841
_symmetry_Int_Tables_number   1
_chemical_formula_structural   Cu4Mo12HS16
_chemical_formula_sum   'Cu4 Mo12 H1 S16'
_cell_volume   1138.69222190
_cell_formula_units_Z   1
loop_
 _symmetry_equiv_pos_site_id
 _symmetry_equiv_pos_as_xyz
  1  'x, y, z'
loop_
 _atom_site_type_symbol
 _atom_site_label
 _atom_site_symmetry_multiplicity
 _atom_site_fract_x
 _atom_site_fract_y
 _atom_site_fract_z
 _atom_site_occupancy
  Cu  Cu0  1  0.93477918  0.16193941  0.46100175  1
  Cu  Cu1  1  0.09745931  0.02968521  0.68200463  1
  Cu  Cu2  1  0.05968000  0.84039500  0.27086500  1
  Cu  Cu3  1  0.04657933  0.84020294  0.50325142  1
  Mo  Mo4  1  0.21521500  0.54428600  0.34262100  1
  Mo  Mo5  1  0.19985097  0.54249452  0.57577471  1
  Mo  Mo6  1  0.77864046  0.45584844  0.38873245  1
  Mo  Mo7  1  0.76744909  0.45770669  0.62039254  1
  Mo  Mo8  1  0.40376867  0.21722115  0.37515643  1
  Mo  Mo9  1  0.39614759  0.22333603  0.60899176  1
  Mo  Mo10  1  0.59495600  0.78352200  0.35564700  1
  Mo  Mo11  1  0.57881758  0.78436176  0.58649581  1
  Mo  Mo12  1  0.53596300  0.40601700  0.30007200  1
  Mo  Mo13  1  0.52141783  0.40594134  0.53097339  1
  Mo  Mo14  1  0.45888131  0.59244610  0.43169169  1
  Mo  Mo15  1  0.45373515  0.58966268  0.65996628  1
  S  S16  1  0.13733513  0.36711801  0.41644890  1
  S  S17  1  0.12313997  0.37421759  0.65246888  1
  S  S18  1  0.85836300  0.62855700  0.31503700  1
  S  S19  1  0.84241734  0.63136661  0.54605655  1
  S  S20  1  0.72038700  0.13919400  0.33837300  1
  S  S21  1  0.70678638  0.14077424  0.57042925  1
  S  S22  1  0.27698408  0.86049189  0.39308596  1
  S  S23  1  0.26501066  0.86154287  0.62654311  1
  S  S24  1  0.38464800  0.73460900  0.27877900  1
  S  S25  1  0.36816756  0.73257339  0.50990220  1
  S  S26  1  0.60953500  0.26470803  0.45286653  1
  S  S27  1  0.61939282  0.28692485  0.68674007  1
  S  S28  1  0.19156400  0.20303200  0.29614100  1
  S  S29  1  0.17854678  0.20155293  0.52940886  1
  S  S30  1  0.80309636  0.79728606  0.43539831  1
  S  S31  1  0.79185173  0.80170597  0.66507130  1
  H  H32  1  0.15816856  0.06268319  0.74039160  1
