# generated using pymatgen
data_Fe4Mo12H(S8N)2
_symmetry_space_group_name_H-M   'P 1'
_cell_length_a   6.48394610
_cell_length_b   6.41202525
_cell_length_c   27.90841600
_cell_angle_alpha   93.69337570
_cell_angle_beta   94.75362703
_cell_angle_gamma   97.43854579
_symmetry_Int_Tables_number   1
_chemical_formula_structural   Fe4Mo12H(S8N)2
_chemical_formula_sum   'Fe4 Mo12 H1 S16 N2'
_cell_volume   1143.25638445
_cell_formula_units_Z   1
loop_
 _symmetry_equiv_pos_site_id
 _symmetry_equiv_pos_as_xyz
  1  'x, y, z'
loop_
 _atom_site_type_symbol
 _atom_site_label
 _atom_site_symmetry_multiplicity
 _atom_site_fract_x
 _atom_site_fract_y
 _atom_site_fract_z
 _atom_site_occupancy
  Fe  Fe0  1  0.92335747  0.15247671  0.46004431  1
  Fe  Fe1  1  0.82612734  0.08523881  0.64425134  1
  Fe  Fe2  1  0.06524100  0.84263700  0.26375600  1
  Fe  Fe3  1  0.04745264  0.82890889  0.50232013  1
  Mo  Mo4  1  0.22189586  0.53867249  0.34361075  1
  Mo  Mo5  1  0.18597094  0.52262645  0.57530759  1
  Mo  Mo6  1  0.78287635  0.45987055  0.38768149  1
  Mo  Mo7  1  0.75090314  0.44570810  0.61815191  1
  Mo  Mo8  1  0.40786699  0.21812397  0.37494774  1
  Mo  Mo9  1  0.37696034  0.20035144  0.60695649  1
  Mo  Mo10  1  0.59395460  0.78104933  0.35592164  1
  Mo  Mo11  1  0.55980932  0.76607543  0.58756789  1
  Mo  Mo12  1  0.54135300  0.40905600  0.30082200  1
  Mo  Mo13  1  0.51479372  0.39458568  0.53100529  1
  Mo  Mo14  1  0.45496493  0.59200380  0.43168647  1
  Mo  Mo15  1  0.42798274  0.57388710  0.66557012  1
  S  S16  1  0.13169126  0.35911797  0.41651643  1
  S  S17  1  0.10090198  0.34504987  0.64845365  1
  S  S18  1  0.86842500  0.63937200  0.31349000  1
  S  S19  1  0.83863789  0.62847836  0.54616636  1
  S  S20  1  0.72301900  0.14241800  0.33608800  1
  S  S21  1  0.68922248  0.11690310  0.56439985  1
  S  S22  1  0.27857473  0.85767664  0.39483751  1
  S  S23  1  0.24873880  0.83840662  0.62869656  1
  S  S24  1  0.38478400  0.73178900  0.28021200  1
  S  S25  1  0.35858190  0.71483107  0.51115676  1
  S  S26  1  0.61223618  0.26980403  0.45138003  1
  S  S27  1  0.59095882  0.24985458  0.68329382  1
  S  S28  1  0.20162900  0.19284800  0.29629700  1
  S  S29  1  0.17112344  0.18033086  0.52531691  1
  S  S30  1  0.80009927  0.80232169  0.43764114  1
  S  S31  1  0.77751643  0.76575332  0.66936441  1
  N  N32  1  0.43231404  0.62834031  0.73413828  1
  N  N33  1  0.44304651  0.65421653  0.77718416  1
  H  H34  1  0.53730952  0.56338008  0.79732189  1
