# generated using pymatgen
data_Cu4Mo12HS16
_symmetry_space_group_name_H-M   'P 1'
_cell_length_a   6.46503600
_cell_length_b   6.38873881
_cell_length_c   27.95633100
_cell_angle_alpha   92.75453660
_cell_angle_beta   96.62629410
_cell_angle_gamma   95.95021841
_symmetry_Int_Tables_number   1
_chemical_formula_structural   Cu4Mo12HS16
_chemical_formula_sum   'Cu4 Mo12 H1 S16'
_cell_volume   1138.69222190
_cell_formula_units_Z   1
loop_
 _symmetry_equiv_pos_site_id
 _symmetry_equiv_pos_as_xyz
  1  'x, y, z'
loop_
 _atom_site_type_symbol
 _atom_site_label
 _atom_site_symmetry_multiplicity
 _atom_site_fract_x
 _atom_site_fract_y
 _atom_site_fract_z
 _atom_site_occupancy
  Cu  Cu0  1  0.93935804  0.15899504  0.46093574  1
  Cu  Cu1  1  0.93542191  0.15292103  0.69015292  1
  Cu  Cu2  1  0.05968000  0.84039500  0.27086500  1
  Cu  Cu3  1  0.05164184  0.83868165  0.50372688  1
  Mo  Mo4  1  0.21521500  0.54428600  0.34262100  1
  Mo  Mo5  1  0.20638811  0.54823549  0.57467787  1
  Mo  Mo6  1  0.78153627  0.45575517  0.38902768  1
  Mo  Mo7  1  0.78451973  0.44953631  0.62112918  1
  Mo  Mo8  1  0.40494786  0.21815930  0.37528138  1
  Mo  Mo9  1  0.40312549  0.21972060  0.60878041  1
  Mo  Mo10  1  0.59495600  0.78352200  0.35564700  1
  Mo  Mo11  1  0.58584759  0.77932316  0.58876385  1
  Mo  Mo12  1  0.53596300  0.40601700  0.30007200  1
  Mo  Mo13  1  0.52965523  0.40282352  0.53181669  1
  Mo  Mo14  1  0.46045104  0.59323360  0.43226211  1
  Mo  Mo15  1  0.46526995  0.59013744  0.66191363  1
  S  S16  1  0.13942083  0.36836468  0.41678850  1
  S  S17  1  0.14091923  0.37261109  0.65104751  1
  S  S18  1  0.85836300  0.62855700  0.31503700  1
  S  S19  1  0.85068939  0.62581858  0.54783128  1
  S  S20  1  0.72038700  0.13919400  0.33837300  1
  S  S21  1  0.71367553  0.13486208  0.57024636  1
  S  S22  1  0.27872825  0.86090253  0.39340854  1
  S  S23  1  0.27481524  0.86276341  0.62835647  1
  S  S24  1  0.38464800  0.73460900  0.27877900  1
  S  S25  1  0.37588872  0.73237763  0.51143735  1
  S  S26  1  0.61364841  0.26516783  0.45295161  1
  S  S27  1  0.61710827  0.27634905  0.68697246  1
  S  S28  1  0.19156400  0.20303200  0.29614100  1
  S  S29  1  0.18340884  0.20407379  0.52902666  1
  S  S30  1  0.80488980  0.79600076  0.43636244  1
  S  S31  1  0.80090872  0.79197071  0.66774122  1
  H  H32  1  0.11823836  0.11207311  0.72641829  1
