# generated using pymatgen
data_Fe4Mo12C(S8O)2
_symmetry_space_group_name_H-M   'P 1'
_cell_length_a   6.48394610
_cell_length_b   6.41202525
_cell_length_c   27.90841600
_cell_angle_alpha   93.69337570
_cell_angle_beta   94.75362703
_cell_angle_gamma   97.43854579
_symmetry_Int_Tables_number   1
_chemical_formula_structural   Fe4Mo12C(S8O)2
_chemical_formula_sum   'Fe4 Mo12 C1 S16 O2'
_cell_volume   1143.25638445
_cell_formula_units_Z   1
loop_
 _symmetry_equiv_pos_site_id
 _symmetry_equiv_pos_as_xyz
  1  'x, y, z'
loop_
 _atom_site_type_symbol
 _atom_site_label
 _atom_site_symmetry_multiplicity
 _atom_site_fract_x
 _atom_site_fract_y
 _atom_site_fract_z
 _atom_site_occupancy
  Fe  Fe0  1  0.92455449  0.14912354  0.46019758  1
  Fe  Fe1  1  0.82890919  0.07804174  0.64399536  1
  Fe  Fe2  1  0.06524100  0.84263700  0.26375600  1
  Fe  Fe3  1  0.05041582  0.82673602  0.50241215  1
  Mo  Mo4  1  0.22234476  0.53947175  0.34375439  1
  Mo  Mo5  1  0.18751186  0.51710325  0.57508324  1
  Mo  Mo6  1  0.78265833  0.45889647  0.38768143  1
  Mo  Mo7  1  0.75402317  0.43680142  0.61697166  1
  Mo  Mo8  1  0.40741998  0.21749716  0.37492686  1
  Mo  Mo9  1  0.38013621  0.18966356  0.60601736  1
  Mo  Mo10  1  0.59444663  0.78009119  0.35609303  1
  Mo  Mo11  1  0.56340404  0.76052707  0.58730639  1
  Mo  Mo12  1  0.54135300  0.40905600  0.30082200  1
  Mo  Mo13  1  0.51725104  0.38982351  0.53052112  1
  Mo  Mo14  1  0.45554813  0.58968974  0.43148928  1
  Mo  Mo15  1  0.43320245  0.55750477  0.66250925  1
  S  S16  1  0.13135382  0.35838426  0.41646316  1
  S  S17  1  0.10377457  0.33623937  0.64734160  1
  S  S18  1  0.86842500  0.63937200  0.31349000  1
  S  S19  1  0.84102709  0.62439416  0.54571519  1
  S  S20  1  0.72301900  0.14241800  0.33608800  1
  S  S21  1  0.69480519  0.11159527  0.56350994  1
  S  S22  1  0.27989582  0.85726828  0.39533907  1
  S  S23  1  0.25446425  0.83151611  0.62906487  1
  S  S24  1  0.38478400  0.73178900  0.28021200  1
  S  S25  1  0.35938505  0.70994847  0.51136923  1
  S  S26  1  0.61329756  0.26672488  0.45093564  1
  S  S27  1  0.59645852  0.24941735  0.68345554  1
  S  S28  1  0.20162900  0.19284800  0.29629700  1
  S  S29  1  0.17395047  0.17714807  0.52454032  1
  S  S30  1  0.80003026  0.80021003  0.43775326  1
  S  S31  1  0.77816166  0.75629888  0.66870536  1
  C  C32  1  0.40279638  0.62359854  0.74141605  1
  O  O33  1  0.42319972  0.81647070  0.75828527  1
  O  O34  1  0.36669687  0.47114482  0.76844112  1
