# generated using pymatgen
data_Cu4Mo12HC(S8O)2
_symmetry_space_group_name_H-M   'P 1'
_cell_length_a   6.46503600
_cell_length_b   6.38873881
_cell_length_c   27.95633100
_cell_angle_alpha   92.75453660
_cell_angle_beta   96.62629410
_cell_angle_gamma   95.95021841
_symmetry_Int_Tables_number   1
_chemical_formula_structural   Cu4Mo12HC(S8O)2
_chemical_formula_sum   'Cu4 Mo12 H1 C1 S16 O2'
_cell_volume   1138.69222190
_cell_formula_units_Z   1
loop_
 _symmetry_equiv_pos_site_id
 _symmetry_equiv_pos_as_xyz
  1  'x, y, z'
loop_
 _atom_site_type_symbol
 _atom_site_label
 _atom_site_symmetry_multiplicity
 _atom_site_fract_x
 _atom_site_fract_y
 _atom_site_fract_z
 _atom_site_occupancy
  Cu  Cu0  1  0.93352522  0.15746061  0.46039583  1
  Cu  Cu1  1  0.06655351  0.03479993  0.68017688  1
  Cu  Cu2  1  0.05968000  0.84039500  0.27086500  1
  Cu  Cu3  1  0.04030039  0.83447605  0.50407052  1
  Mo  Mo4  1  0.21521500  0.54428600  0.34262100  1
  Mo  Mo5  1  0.18925846  0.53926855  0.57597419  1
  Mo  Mo6  1  0.77961041  0.45527572  0.38899866  1
  Mo  Mo7  1  0.75712288  0.44982585  0.62084482  1
  Mo  Mo8  1  0.40388476  0.21585573  0.37502656  1
  Mo  Mo9  1  0.38584789  0.22052308  0.60890869  1
  Mo  Mo10  1  0.59495600  0.78352200  0.35564700  1
  Mo  Mo11  1  0.56839832  0.77634004  0.58713109  1
  Mo  Mo12  1  0.53596300  0.40601700  0.30007200  1
  Mo  Mo13  1  0.51412930  0.40048047  0.53096304  1
  Mo  Mo14  1  0.45802780  0.59121608  0.43214560  1
  Mo  Mo15  1  0.44391241  0.58514341  0.66203918  1
  S  S16  1  0.13714535  0.36514626  0.41622793  1
  S  S17  1  0.11461783  0.37681040  0.65227759  1
  S  S18  1  0.85836300  0.62855700  0.31503700  1
  S  S19  1  0.83333420  0.62751008  0.54668528  1
  S  S20  1  0.72038700  0.13919400  0.33837300  1
  S  S21  1  0.69599419  0.13304348  0.57019302  1
  S  S22  1  0.27757835  0.85972231  0.39323125  1
  S  S23  1  0.25365942  0.86005687  0.62805770  1
  S  S24  1  0.38464800  0.73460900  0.27877900  1
  S  S25  1  0.36079808  0.72777468  0.51005166  1
  S  S26  1  0.60926017  0.26388023  0.45291514  1
  S  S27  1  0.60300888  0.28094779  0.68674554  1
  S  S28  1  0.19156400  0.20303200  0.29614100  1
  S  S29  1  0.17104197  0.20087279  0.52871820  1
  S  S30  1  0.80173488  0.79616892  0.43580722  1
  S  S31  1  0.77943970  0.78820016  0.66510453  1
  C  C32  1  0.02707357  0.11928144  0.74734676  1
  O  O33  1  0.05872479  0.29459240  0.76919062  1
  O  O34  1  0.94734468  0.95022417  0.77009338  1
  H  H35  1  0.92222399  0.99720348  0.80318096  1
