# generated using pymatgen
data_HPd27O2
_symmetry_space_group_name_H-M   'P 1'
_cell_length_a   8.25699600
_cell_length_b   8.25682200
_cell_length_c   23.35403400
_cell_angle_alpha   89.99925057
_cell_angle_beta   89.99908404
_cell_angle_gamma   89.99983345
_symmetry_Int_Tables_number   1
_chemical_formula_structural   HPd27O2
_chemical_formula_sum   'Pd27 H1 O2'
_cell_volume   1592.19737858
_cell_formula_units_Z   1
loop_
 _symmetry_equiv_pos_site_id
 _symmetry_equiv_pos_as_xyz
  1  'x, y, z'
loop_
 _atom_site_type_symbol
 _atom_site_label
 _atom_site_symmetry_multiplicity
 _atom_site_fract_x
 _atom_site_fract_y
 _atom_site_fract_z
 _atom_site_occupancy
  Pd  Pd0  1  0.00000200  0.33333400  0.45833700  1
  Pd  Pd1  1  0.00000200  0.66666700  0.45833700  1
  Pd  Pd2  1  0.00000200  0.00000000  0.45833700  1
  Pd  Pd3  1  0.33333600  0.33333300  0.45833700  1
  Pd  Pd4  1  0.33333600  0.66666700  0.45833700  1
  Pd  Pd5  1  0.33333600  0.00000000  0.45833700  1
  Pd  Pd6  1  0.66666900  0.33333300  0.45833700  1
  Pd  Pd7  1  0.66666900  0.66666700  0.45833700  1
  Pd  Pd8  1  0.66666900  0.00000000  0.45833700  1
  Pd  Pd9  1  0.16666300  0.16666600  0.37499900  1
  Pd  Pd10  1  0.16666300  0.50000000  0.37499900  1
  Pd  Pd11  1  0.16666300  0.83333300  0.37499900  1
  Pd  Pd12  1  0.49999600  0.16666600  0.37499900  1
  Pd  Pd13  1  0.49999600  0.50000000  0.37499900  1
  Pd  Pd14  1  0.49999600  0.83333300  0.37499900  1
  Pd  Pd15  1  0.83333000  0.16666600  0.37499900  1
  Pd  Pd16  1  0.83333000  0.50000000  0.37499900  1
  Pd  Pd17  1  0.83333000  0.83333300  0.37499900  1
  Pd  Pd18  1  0.16554475  0.16612401  0.54224374  1
  Pd  Pd19  1  0.16482473  0.49995063  0.54161734  1
  Pd  Pd20  1  0.16572225  0.83399779  0.54238472  1
  Pd  Pd21  1  0.49937382  0.16624589  0.54167833  1
  Pd  Pd22  1  0.49518588  0.50232410  0.54616715  1
  Pd  Pd23  1  0.49978652  0.83428023  0.54152639  1
  Pd  Pd24  1  0.83357413  0.16609506  0.54204375  1
  Pd  Pd25  1  0.83296460  0.50036595  0.54201267  1
  Pd  Pd26  1  0.83347705  0.83417994  0.54217475  1
  O  O27  1  0.54477663  0.46309045  0.62898539  1
  O  O28  1  0.45588614  0.57850655  0.66449222  1
  H  H29  1  0.53185422  0.67082779  0.66633930  1
