# generated using pymatgen
data_Sn36HCO
_symmetry_space_group_name_H-M   'P 1'
_cell_length_a   9.43221838
_cell_length_b   11.60326658
_cell_length_c   30.60418900
_cell_angle_alpha   90.03914768
_cell_angle_beta   90.23654075
_cell_angle_gamma   88.57775690
_symmetry_Int_Tables_number   1
_chemical_formula_structural   Sn36HCO
_chemical_formula_sum   'Sn36 H1 C1 O1'
_cell_volume   3348.40054919
_cell_formula_units_Z   1
loop_
 _symmetry_equiv_pos_site_id
 _symmetry_equiv_pos_as_xyz
  1  'x, y, z'
loop_
 _atom_site_type_symbol
 _atom_site_label
 _atom_site_symmetry_multiplicity
 _atom_site_fract_x
 _atom_site_fract_y
 _atom_site_fract_z
 _atom_site_occupancy
  Sn  Sn0  1  0.21244830  0.31032351  0.54526612  1
  Sn  Sn1  1  0.21763126  0.81023750  0.54752193  1
  Sn  Sn2  1  0.54383998  0.31005492  0.55264047  1
  Sn  Sn3  1  0.55436805  0.81256518  0.54529760  1
  Sn  Sn4  1  0.88041512  0.31275166  0.54906836  1
  Sn  Sn5  1  0.88824507  0.81238878  0.55820275  1
  Sn  Sn6  1  0.03684230  0.06288975  0.54497875  1
  Sn  Sn7  1  0.03268351  0.56063134  0.54488304  1
  Sn  Sn8  1  0.36632059  0.05864900  0.56212050  1
  Sn  Sn9  1  0.36289894  0.56172000  0.55877504  1
  Sn  Sn10  1  0.70403012  0.06207459  0.54915814  1
  Sn  Sn11  1  0.70042237  0.56223940  0.54972995  1
  Sn  Sn12  1  0.22663689  0.31169271  0.44655621  1
  Sn  Sn13  1  0.23858487  0.81376728  0.44688962  1
  Sn  Sn14  1  0.55767649  0.31331680  0.44877304  1
  Sn  Sn15  1  0.57266144  0.81406836  0.44649860  1
  Sn  Sn16  1  0.89300862  0.31123249  0.45050704  1
  Sn  Sn17  1  0.90350874  0.81362923  0.45852070  1
  Sn  Sn18  1  0.02757606  0.05890297  0.44551094  1
  Sn  Sn19  1  0.01874004  0.56279479  0.44545342  1
  Sn  Sn20  1  0.35889624  0.06280162  0.46306533  1
  Sn  Sn21  1  0.35176783  0.56071897  0.45944734  1
  Sn  Sn22  1  0.69159299  0.06495625  0.44981570  1
  Sn  Sn23  1  0.68586712  0.55843205  0.45065453  1
  Sn  Sn24  1  0.21579100  0.31083800  0.34996900  1
  Sn  Sn25  1  0.21579100  0.81083800  0.34996900  1
  Sn  Sn26  1  0.54912400  0.31083800  0.34996900  1
  Sn  Sn27  1  0.54912400  0.81083800  0.34996900  1
  Sn  Sn28  1  0.88245700  0.31083800  0.34996900  1
  Sn  Sn29  1  0.88245700  0.81083800  0.34996900  1
  Sn  Sn30  1  0.03172900  0.06063000  0.35002900  1
  Sn  Sn31  1  0.03172900  0.56063000  0.35002900  1
  Sn  Sn32  1  0.36506200  0.06063000  0.35002900  1
  Sn  Sn33  1  0.36506200  0.56063000  0.35002900  1
  Sn  Sn34  1  0.69839600  0.06063000  0.35002900  1
  Sn  Sn35  1  0.69839600  0.56063000  0.35002900  1
  C  C36  1  0.58402178  0.32001992  0.62740945  1
  H  H37  1  0.49348995  0.30428951  0.64990893  1
  O  O38  1  0.70071348  0.34159853  0.64093751  1
