# generated using pymatgen
data_Fe4Mo12HS16
_symmetry_space_group_name_H-M   'P 1'
_cell_length_a   6.48394610
_cell_length_b   6.41202525
_cell_length_c   27.90841600
_cell_angle_alpha   93.69337570
_cell_angle_beta   94.75362703
_cell_angle_gamma   97.43854579
_symmetry_Int_Tables_number   1
_chemical_formula_structural   Fe4Mo12HS16
_chemical_formula_sum   'Fe4 Mo12 H1 S16'
_cell_volume   1143.25638445
_cell_formula_units_Z   1
loop_
 _symmetry_equiv_pos_site_id
 _symmetry_equiv_pos_as_xyz
  1  'x, y, z'
loop_
 _atom_site_type_symbol
 _atom_site_label
 _atom_site_symmetry_multiplicity
 _atom_site_fract_x
 _atom_site_fract_y
 _atom_site_fract_z
 _atom_site_occupancy
  Fe  Fe0  1  0.93092638  0.15533232  0.46428413  1
  Fe  Fe1  1  0.83074256  0.10153765  0.65492651  1
  Fe  Fe2  1  0.06524100  0.84263700  0.26375600  1
  Fe  Fe3  1  0.04408770  0.83397990  0.49795205  1
  Mo  Mo4  1  0.21920868  0.53845163  0.34330739  1
  Mo  Mo5  1  0.19154711  0.53017122  0.57586339  1
  Mo  Mo6  1  0.77905731  0.45944977  0.38775182  1
  Mo  Mo7  1  0.74918815  0.45200358  0.61894426  1
  Mo  Mo8  1  0.40629276  0.21756037  0.37490664  1
  Mo  Mo9  1  0.37935613  0.20705629  0.60809106  1
  Mo  Mo10  1  0.59139098  0.78212545  0.35581619  1
  Mo  Mo11  1  0.56296575  0.77214878  0.58894342  1
  Mo  Mo12  1  0.54135300  0.40905600  0.30082200  1
  Mo  Mo13  1  0.51763025  0.40250497  0.53251423  1
  Mo  Mo14  1  0.45257433  0.59073266  0.43090204  1
  Mo  Mo15  1  0.42574557  0.57411908  0.66127929  1
  S  S16  1  0.12890508  0.35837474  0.41666104  1
  S  S17  1  0.09791128  0.35246539  0.64842005  1
  S  S18  1  0.86842500  0.63937200  0.31349000  1
  S  S19  1  0.84232862  0.63658273  0.54670580  1
  S  S20  1  0.72301900  0.14241800  0.33608800  1
  S  S21  1  0.69685396  0.12784091  0.56796926  1
  S  S22  1  0.27513041  0.85727746  0.39460820  1
  S  S23  1  0.24834112  0.84776014  0.62940150  1
  S  S24  1  0.38478400  0.73178900  0.28021200  1
  S  S25  1  0.36234776  0.72276703  0.51191663  1
  S  S26  1  0.61066531  0.26835085  0.45168991  1
  S  S27  1  0.58382213  0.27201557  0.68709737  1
  S  S28  1  0.20162900  0.19284800  0.29629700  1
  S  S29  1  0.17678037  0.18692563  0.52797783  1
  S  S30  1  0.79415300  0.80548764  0.43545618  1
  S  S31  1  0.76703409  0.77044997  0.67084750  1
  H  H32  1  0.94292258  0.08930611  0.70379985  1
