# generated using pymatgen
data_Sn36CO
_symmetry_space_group_name_H-M   'P 1'
_cell_length_a   9.43221838
_cell_length_b   11.60326658
_cell_length_c   30.60418900
_cell_angle_alpha   90.03914768
_cell_angle_beta   90.23654075
_cell_angle_gamma   88.57775690
_symmetry_Int_Tables_number   1
_chemical_formula_structural   Sn36CO
_chemical_formula_sum   'Sn36 C1 O1'
_cell_volume   3348.40054919
_cell_formula_units_Z   1
loop_
 _symmetry_equiv_pos_site_id
 _symmetry_equiv_pos_as_xyz
  1  'x, y, z'
loop_
 _atom_site_type_symbol
 _atom_site_label
 _atom_site_symmetry_multiplicity
 _atom_site_fract_x
 _atom_site_fract_y
 _atom_site_fract_z
 _atom_site_occupancy
  Sn  Sn0  1  0.21437582  0.31184809  0.55066719  1
  Sn  Sn1  1  0.21815927  0.81179535  0.55059901  1
  Sn  Sn2  1  0.54817365  0.31017440  0.54187777  1
  Sn  Sn3  1  0.55067942  0.81132209  0.54879203  1
  Sn  Sn4  1  0.88154973  0.31154129  0.55249073  1
  Sn  Sn5  1  0.88394006  0.81089431  0.55132066  1
  Sn  Sn6  1  0.03220747  0.06034795  0.54816126  1
  Sn  Sn7  1  0.03172284  0.56125247  0.54857997  1
  Sn  Sn8  1  0.36364214  0.05996606  0.54942264  1
  Sn  Sn9  1  0.36353008  0.56116968  0.55036059  1
  Sn  Sn10  1  0.69897376  0.05880046  0.55230593  1
  Sn  Sn11  1  0.69796274  0.56112809  0.55172632  1
  Sn  Sn12  1  0.22833445  0.31378492  0.45125692  1
  Sn  Sn13  1  0.23271207  0.81326051  0.45053947  1
  Sn  Sn14  1  0.56471288  0.31582517  0.44224352  1
  Sn  Sn15  1  0.56519307  0.81435516  0.44888280  1
  Sn  Sn16  1  0.89404855  0.31323267  0.45348608  1
  Sn  Sn17  1  0.89997494  0.81428741  0.45141137  1
  Sn  Sn18  1  0.02359178  0.06393300  0.44855092  1
  Sn  Sn19  1  0.02226887  0.56040705  0.44881725  1
  Sn  Sn20  1  0.35641593  0.06092275  0.44893534  1
  Sn  Sn21  1  0.35604506  0.56253371  0.44983112  1
  Sn  Sn22  1  0.68988735  0.06237155  0.45277189  1
  Sn  Sn23  1  0.69034763  0.56428441  0.45225328  1
  Sn  Sn24  1  0.21579100  0.31083800  0.34996900  1
  Sn  Sn25  1  0.21579100  0.81083800  0.34996900  1
  Sn  Sn26  1  0.54912400  0.31083800  0.34996900  1
  Sn  Sn27  1  0.54912400  0.81083800  0.34996900  1
  Sn  Sn28  1  0.88245700  0.31083800  0.34996900  1
  Sn  Sn29  1  0.88245700  0.81083800  0.34996900  1
  Sn  Sn30  1  0.03172900  0.06063000  0.35002900  1
  Sn  Sn31  1  0.03172900  0.56063000  0.35002900  1
  Sn  Sn32  1  0.36506200  0.06063000  0.35002900  1
  Sn  Sn33  1  0.36506200  0.56063000  0.35002900  1
  Sn  Sn34  1  0.69839600  0.06063000  0.35002900  1
  Sn  Sn35  1  0.69839600  0.56063000  0.35002900  1
  O  O36  1  0.53839816  0.29919407  0.65995932  1
  C  C37  1  0.54529450  0.31313829  0.62278141  1
