# generated using pymatgen
data_HPd27O2
_symmetry_space_group_name_H-M   'P 1'
_cell_length_a   8.25699600
_cell_length_b   8.25682200
_cell_length_c   23.35403400
_cell_angle_alpha   89.99925057
_cell_angle_beta   89.99908404
_cell_angle_gamma   89.99983345
_symmetry_Int_Tables_number   1
_chemical_formula_structural   HPd27O2
_chemical_formula_sum   'Pd27 H1 O2'
_cell_volume   1592.19737858
_cell_formula_units_Z   1
loop_
 _symmetry_equiv_pos_site_id
 _symmetry_equiv_pos_as_xyz
  1  'x, y, z'
loop_
 _atom_site_type_symbol
 _atom_site_label
 _atom_site_symmetry_multiplicity
 _atom_site_fract_x
 _atom_site_fract_y
 _atom_site_fract_z
 _atom_site_occupancy
  Pd  Pd0  1  0.99999800  0.33333400  0.45898500  1
  Pd  Pd1  1  0.99999700  0.66666600  0.45898400  1
  Pd  Pd2  1  0.99999500  0.00000100  0.45898500  1
  Pd  Pd3  1  0.33332900  0.33333400  0.45898400  1
  Pd  Pd4  1  0.33332800  0.66666600  0.45898400  1
  Pd  Pd5  1  0.33333100  0.00000200  0.45898500  1
  Pd  Pd6  1  0.66666400  0.33333100  0.45898500  1
  Pd  Pd7  1  0.66666500  0.66666800  0.45898400  1
  Pd  Pd8  1  0.66666400  0.00000200  0.45898500  1
  Pd  Pd9  1  0.16666300  0.16666600  0.37499900  1
  Pd  Pd10  1  0.16666300  0.50000000  0.37499900  1
  Pd  Pd11  1  0.16666300  0.83333300  0.37499900  1
  Pd  Pd12  1  0.49999600  0.16666600  0.37499900  1
  Pd  Pd13  1  0.49999600  0.50000000  0.37499900  1
  Pd  Pd14  1  0.49999600  0.83333300  0.37499900  1
  Pd  Pd15  1  0.83333000  0.16666600  0.37499900  1
  Pd  Pd16  1  0.83333000  0.50000000  0.37499900  1
  Pd  Pd17  1  0.83333000  0.83333300  0.37499900  1
  Pd  Pd18  1  0.16539561  0.16639174  0.54295788  1
  Pd  Pd19  1  0.16458878  0.50001154  0.54235416  1
  Pd  Pd20  1  0.16569550  0.83399729  0.54314873  1
  Pd  Pd21  1  0.49940905  0.16571343  0.54216151  1
  Pd  Pd22  1  0.49511576  0.50137821  0.54706730  1
  Pd  Pd23  1  0.49977788  0.83405080  0.54224738  1
  Pd  Pd24  1  0.83353369  0.16604920  0.54291546  1
  Pd  Pd25  1  0.83295258  0.50036222  0.54240533  1
  Pd  Pd26  1  0.83336907  0.83443404  0.54287998  1
  O  O27  1  0.54334406  0.46014632  0.63058271  1
  O  O28  1  0.45690051  0.57816940  0.66672750  1
  H  H29  1  0.53088141  0.67273570  0.66546414  1
