# generated using pymatgen
data_Au27O
_symmetry_space_group_name_H-M   'P 1'
_cell_length_a   8.57745306
_cell_length_b   8.57952124
_cell_length_c   25.48431000
_cell_angle_alpha   89.99453055
_cell_angle_beta   89.99330683
_cell_angle_gamma   96.00496057
_symmetry_Int_Tables_number   1
_chemical_formula_structural   Au27O
_chemical_formula_sum   'Au27 O1'
_cell_volume   1865.11095498
_cell_formula_units_Z   1
loop_
 _symmetry_equiv_pos_site_id
 _symmetry_equiv_pos_as_xyz
  1  'x, y, z'
loop_
 _atom_site_type_symbol
 _atom_site_label
 _atom_site_symmetry_multiplicity
 _atom_site_fract_x
 _atom_site_fract_y
 _atom_site_fract_z
 _atom_site_occupancy
  Au  Au0  1  0.00172224  0.33299841  0.54260332  1
  Au  Au1  1  0.99830845  0.66696438  0.54258455  1
  Au  Au2  1  0.99997166  0.99997342  0.54215279  1
  Au  Au3  1  0.33824299  0.33825135  0.54475918  1
  Au  Au4  1  0.33332497  0.66660389  0.54405380  1
  Au  Au5  1  0.33299590  0.00172035  0.54259944  1
  Au  Au6  1  0.66660728  0.33333149  0.54405396  1
  Au  Au7  1  0.66175126  0.66174521  0.54476828  1
  Au  Au8  1  0.66696378  0.99831332  0.54258084  1
  Au  Au9  1  0.16534287  0.16533732  0.62687985  1
  Au  Au10  1  0.16233065  0.49942010  0.62789527  1
  Au  Au11  1  0.16666531  0.83324470  0.62714528  1
  Au  Au12  1  0.49941876  0.16231852  0.62789074  1
  Au  Au13  1  0.49989610  0.49989565  0.63427217  1
  Au  Au14  1  0.50049940  0.83762970  0.62786851  1
  Au  Au15  1  0.83324613  0.16667192  0.62714537  1
  Au  Au16  1  0.83761557  0.50050273  0.62787318  1
  Au  Au17  1  0.83456571  0.83457628  0.62688951  1
  Au  Au18  1  0.16666600  0.16666800  0.45833300  1
  Au  Au19  1  0.16666600  0.50000100  0.45833300  1
  Au  Au20  1  0.16666600  0.83333400  0.45833300  1
  Au  Au21  1  0.50000000  0.16666800  0.45833300  1
  Au  Au22  1  0.50000000  0.50000100  0.45833300  1
  Au  Au23  1  0.50000000  0.83333400  0.45833300  1
  Au  Au24  1  0.83333300  0.16666800  0.45833300  1
  Au  Au25  1  0.83333300  0.50000100  0.45833300  1
  Au  Au26  1  0.83333300  0.83333400  0.45833300  1
  O  O27  1  0.49992351  0.49992871  0.71387742  1
