# generated using pymatgen
data_PtAu26O
_symmetry_space_group_name_H-M   'P 1'
_cell_length_a   8.57606266
_cell_length_b   8.57606266
_cell_length_c   23.65109797
_cell_angle_alpha   88.12641697
_cell_angle_beta   88.12641697
_cell_angle_gamma   63.40130658
_symmetry_Int_Tables_number   1
_chemical_formula_structural   PtAu26O
_chemical_formula_sum   'Pt1 Au26 O1'
_cell_volume   1554.26011481
_cell_formula_units_Z   1
loop_
 _symmetry_equiv_pos_site_id
 _symmetry_equiv_pos_as_xyz
  1  'x, y, z'
loop_
 _atom_site_type_symbol
 _atom_site_label
 _atom_site_symmetry_multiplicity
 _atom_site_fract_x
 _atom_site_fract_y
 _atom_site_fract_z
 _atom_site_occupancy
  Au  Au0  1  0.20405242  0.20405242  0.60225888  1
  Au  Au1  1  0.20203919  0.53854717  0.60167540  1
  Au  Au2  1  0.19974231  0.87340894  0.60189917  1
  Au  Au3  1  0.53854715  0.20203916  0.60167540  1
  Au  Au4  1  0.53349834  0.87575182  0.60197403  1
  Au  Au5  1  0.87340894  0.19974224  0.60189916  1
  Au  Au6  1  0.87575184  0.53349830  0.60197403  1
  Au  Au7  1  0.86896620  0.86896619  0.60253069  1
  Au  Au8  1  0.99957976  0.33364832  0.50076422  1
  Au  Au9  1  0.00066620  0.66779370  0.50065450  1
  Au  Au10  1  0.00021969  0.00021968  0.50054324  1
  Au  Au11  1  0.33261643  0.33261645  0.50089764  1
  Au  Au12  1  0.33801890  0.66347819  0.50230760  1
  Au  Au13  1  0.33364827  0.99957981  0.50076420  1
  Au  Au14  1  0.66347821  0.33801890  0.50230760  1
  Au  Au15  1  0.66629382  0.66629379  0.50240388  1
  Au  Au16  1  0.66779370  0.00066619  0.50065450  1
  Au  Au17  1  0.13333300  0.13333300  0.40000000  1
  Au  Au18  1  0.13333300  0.46666600  0.40000000  1
  Au  Au19  1  0.13333300  0.80000000  0.40000000  1
  Au  Au20  1  0.46666600  0.13333300  0.40000000  1
  Au  Au21  1  0.46666700  0.46666700  0.40000000  1
  Au  Au22  1  0.46666700  0.80000000  0.40000000  1
  Au  Au23  1  0.80000000  0.13333300  0.40000000  1
  Au  Au24  1  0.80000000  0.46666700  0.40000000  1
  Au  Au25  1  0.80000000  0.80000000  0.40000000  1
  Pt  Pt26  1  0.54000662  0.54000676  0.60249063  1
  O  O27  1  0.52631213  0.52631214  0.67912784  1
