# generated using pymatgen
data_HAu27
_symmetry_space_group_name_H-M   'P 1'
_cell_length_a   8.57745306
_cell_length_b   8.57952124
_cell_length_c   25.48431000
_cell_angle_alpha   89.99453055
_cell_angle_beta   89.99330683
_cell_angle_gamma   96.00496057
_symmetry_Int_Tables_number   1
_chemical_formula_structural   HAu27
_chemical_formula_sum   'H1 Au27'
_cell_volume   1865.11095498
_cell_formula_units_Z   1
loop_
 _symmetry_equiv_pos_site_id
 _symmetry_equiv_pos_as_xyz
  1  'x, y, z'
loop_
 _atom_site_type_symbol
 _atom_site_label
 _atom_site_symmetry_multiplicity
 _atom_site_fract_x
 _atom_site_fract_y
 _atom_site_fract_z
 _atom_site_occupancy
  Au  Au0  1  0.00202414  0.33133943  0.54419915  1
  Au  Au1  1  0.99872860  0.66426847  0.54442898  1
  Au  Au2  1  0.99685294  0.99685584  0.54534946  1
  Au  Au3  1  0.33656239  0.33656335  0.54539516  1
  Au  Au4  1  0.33459660  0.66903387  0.54442749  1
  Au  Au5  1  0.33133713  0.00203140  0.54419844  1
  Au  Au6  1  0.66903106  0.33460684  0.54442886  1
  Au  Au7  1  0.66659983  0.66660593  0.54074910  1
  Au  Au8  1  0.66427007  0.99872799  0.54442994  1
  Au  Au9  1  0.16645968  0.16646395  0.63119820  1
  Au  Au10  1  0.17306378  0.49988691  0.62943201  1
  Au  Au11  1  0.16016352  0.83321824  0.62940473  1
  Au  Au12  1  0.49988519  0.17306468  0.62943332  1
  Au  Au13  1  0.50736158  0.50736123  0.63326940  1
  Au  Au14  1  0.49012729  0.84300001  0.63176085  1
  Au  Au15  1  0.83321401  0.16017608  0.62940664  1
  Au  Au16  1  0.84298133  0.49012729  0.63176609  1
  Au  Au17  1  0.82586733  0.82588832  0.63320144  1
  Au  Au18  1  0.16666600  0.16666800  0.45833300  1
  Au  Au19  1  0.16666600  0.50000100  0.45833300  1
  Au  Au20  1  0.16666600  0.83333400  0.45833300  1
  Au  Au21  1  0.50000000  0.16666800  0.45833300  1
  Au  Au22  1  0.50000000  0.50000100  0.45833300  1
  Au  Au23  1  0.50000000  0.83333400  0.45833300  1
  Au  Au24  1  0.83333300  0.16666800  0.45833300  1
  Au  Au25  1  0.83333300  0.50000100  0.45833300  1
  Au  Au26  1  0.83333300  0.83333400  0.45833300  1
  H  H27  1  0.66664772  0.66658907  0.65290401  1
