# generated using pymatgen
data_HAu27O2
_symmetry_space_group_name_H-M   'P 1'
_cell_length_a   8.57745306
_cell_length_b   8.57952124
_cell_length_c   25.48431000
_cell_angle_alpha   89.99453055
_cell_angle_beta   89.99330683
_cell_angle_gamma   96.00496057
_symmetry_Int_Tables_number   1
_chemical_formula_structural   HAu27O2
_chemical_formula_sum   'H1 Au27 O2'
_cell_volume   1865.11095498
_cell_formula_units_Z   1
loop_
 _symmetry_equiv_pos_site_id
 _symmetry_equiv_pos_as_xyz
  1  'x, y, z'
loop_
 _atom_site_type_symbol
 _atom_site_label
 _atom_site_symmetry_multiplicity
 _atom_site_fract_x
 _atom_site_fract_y
 _atom_site_fract_z
 _atom_site_occupancy
  Au  Au0  1  0.00188761  0.33333098  0.54319994  1
  Au  Au1  1  0.99883945  0.66756616  0.54302443  1
  Au  Au2  1  0.99939275  0.99980305  0.54347543  1
  Au  Au3  1  0.33628815  0.33609648  0.54443581  1
  Au  Au4  1  0.33320340  0.66725064  0.54432332  1
  Au  Au5  1  0.33238974  0.00123220  0.54294739  1
  Au  Au6  1  0.66780247  0.33328666  0.54420612  1
  Au  Au7  1  0.66290161  0.66318059  0.54458869  1
  Au  Au8  1  0.66674839  0.99879574  0.54308956  1
  Au  Au9  1  0.16700756  0.16686093  0.62762677  1
  Au  Au10  1  0.16699973  0.50056087  0.62840895  1
  Au  Au11  1  0.16566647  0.83330187  0.62811069  1
  Au  Au12  1  0.50063215  0.16338166  0.62786632  1
  Au  Au13  1  0.50831435  0.50168413  0.63025058  1
  Au  Au14  1  0.49878469  0.83755056  0.62905912  1
  Au  Au15  1  0.83393174  0.16612325  0.62799261  1
  Au  Au16  1  0.84122330  0.49993666  0.62876843  1
  Au  Au17  1  0.83158787  0.83271131  0.62800546  1
  Au  Au18  1  0.16666600  0.16666800  0.45833300  1
  Au  Au19  1  0.16666600  0.50000100  0.45833300  1
  Au  Au20  1  0.16666600  0.83333400  0.45833300  1
  Au  Au21  1  0.50000000  0.16666800  0.45833300  1
  Au  Au22  1  0.50000000  0.50000100  0.45833300  1
  Au  Au23  1  0.50000000  0.83333400  0.45833300  1
  Au  Au24  1  0.83333300  0.16666800  0.45833300  1
  Au  Au25  1  0.83333300  0.50000100  0.45833300  1
  Au  Au26  1  0.83333300  0.83333400  0.45833300  1
  O  O27  1  0.46005680  0.45786678  0.71429071  1
  O  O28  1  0.54566389  0.57910887  0.74765737  1
  H  H29  1  0.50087412  0.67479535  0.73623791  1
