# generated using pymatgen
data_Ni26MoH
_symmetry_space_group_name_H-M   'P 1'
_cell_length_a   7.33150949
_cell_length_b   7.33150889
_cell_length_c   21.99719400
_cell_angle_alpha   90.00513446
_cell_angle_beta   93.17934504
_cell_angle_gamma   119.99848735
_symmetry_Int_Tables_number   1
_chemical_formula_structural   Ni26MoH
_chemical_formula_sum   'Ni26 Mo1 H1'
_cell_volume   1021.87426739
_cell_formula_units_Z   1
loop_
 _symmetry_equiv_pos_site_id
 _symmetry_equiv_pos_as_xyz
  1  'x, y, z'
loop_
 _atom_site_type_symbol
 _atom_site_label
 _atom_site_symmetry_multiplicity
 _atom_site_fract_x
 _atom_site_fract_y
 _atom_site_fract_z
 _atom_site_occupancy
  Ni  Ni0  1  0.09090900  0.04545500  0.40909100  1
  Ni  Ni1  1  0.09090900  0.37878800  0.40909100  1
  Ni  Ni2  1  0.09090900  0.71212100  0.40909100  1
  Ni  Ni3  1  0.42424200  0.04545500  0.40909100  1
  Ni  Ni4  1  0.42424200  0.37878800  0.40909100  1
  Ni  Ni5  1  0.42424200  0.71212100  0.40909100  1
  Ni  Ni6  1  0.75757600  0.04545500  0.40909100  1
  Ni  Ni7  1  0.75757600  0.37878800  0.40909100  1
  Ni  Ni8  1  0.75757600  0.71212100  0.40909100  1
  Ni  Ni9  1  0.33428386  0.16641450  0.50189272  1
  Ni  Ni10  1  0.33067892  0.49859171  0.50103324  1
  Ni  Ni11  1  0.33313995  0.83414279  0.50159372  1
  Ni  Ni12  1  0.66726884  0.16756929  0.50056884  1
  Ni  Ni13  1  0.66854226  0.49897544  0.50153056  1
  Ni  Ni14  1  0.66865358  0.83655751  0.50102577  1
  Ni  Ni15  1  0.99987585  0.16720834  0.50067000  1
  Ni  Ni16  1  0.99956295  0.49977862  0.50055071  1
  Ni  Ni17  1  0.00112653  0.83318124  0.50191331  1
  Ni  Ni18  1  0.24187833  0.28643658  0.59370717  1
  Ni  Ni19  1  0.24261185  0.62260280  0.59361875  1
  Ni  Ni20  1  0.24313382  0.95495192  0.59352059  1
  Ni  Ni21  1  0.57506514  0.28647031  0.59611724  1
  Ni  Ni22  1  0.57550768  0.95542548  0.59359333  1
  Ni  Ni23  1  0.91100103  0.28663811  0.59290492  1
  Ni  Ni24  1  0.91239429  0.62381571  0.59609527  1
  Ni  Ni25  1  0.91147339  0.95601515  0.59373088  1
  Mo  Mo26  1  0.57480714  0.62235525  0.59139636  1
  H  H27  1  0.81103652  0.40112726  0.63613813  1
