# generated using pymatgen
data_HPt(Au13O)2
_symmetry_space_group_name_H-M   'P 1'
_cell_length_a   8.57606266
_cell_length_b   8.57606266
_cell_length_c   23.65109797
_cell_angle_alpha   88.12641697
_cell_angle_beta   88.12641697
_cell_angle_gamma   63.40130658
_symmetry_Int_Tables_number   1
_chemical_formula_structural   HPt(Au13O)2
_chemical_formula_sum   'H1 Pt1 Au26 O2'
_cell_volume   1554.26011481
_cell_formula_units_Z   1
loop_
 _symmetry_equiv_pos_site_id
 _symmetry_equiv_pos_as_xyz
  1  'x, y, z'
loop_
 _atom_site_type_symbol
 _atom_site_label
 _atom_site_symmetry_multiplicity
 _atom_site_fract_x
 _atom_site_fract_y
 _atom_site_fract_z
 _atom_site_occupancy
  Au  Au0  1  0.21114280  0.20871020  0.60207790  1
  Au  Au1  1  0.21150988  0.54337168  0.60101564  1
  Au  Au2  1  0.21051878  0.87594879  0.60267281  1
  Au  Au3  1  0.54508485  0.20902743  0.60094044  1
  Au  Au4  1  0.54174596  0.87941752  0.60109320  1
  Au  Au5  1  0.87792226  0.20837291  0.60134674  1
  Au  Au6  1  0.88262532  0.54000055  0.60217848  1
  Au  Au7  1  0.87765030  0.87534935  0.60212305  1
  Au  Au8  1  0.00424716  0.33690236  0.50080305  1
  Au  Au9  1  0.00396415  0.67109364  0.50068039  1
  Au  Au10  1  0.00528850  0.00297570  0.50099863  1
  Au  Au11  1  0.33667654  0.33628718  0.50081163  1
  Au  Au12  1  0.34112498  0.66779507  0.50151770  1
  Au  Au13  1  0.33728951  0.00367335  0.50072473  1
  Au  Au14  1  0.66919278  0.33868474  0.50050740  1
  Au  Au15  1  0.67029297  0.66861537  0.50173486  1
  Au  Au16  1  0.67247336  0.00306882  0.50056893  1
  Au  Au17  1  0.13333300  0.13333300  0.40000000  1
  Au  Au18  1  0.13333300  0.46666600  0.40000000  1
  Au  Au19  1  0.13333300  0.80000000  0.40000000  1
  Au  Au20  1  0.46666600  0.13333300  0.40000000  1
  Au  Au21  1  0.46666700  0.46666700  0.40000000  1
  Au  Au22  1  0.46666700  0.80000000  0.40000000  1
  Au  Au23  1  0.80000000  0.13333300  0.40000000  1
  Au  Au24  1  0.80000000  0.46666700  0.40000000  1
  Au  Au25  1  0.80000000  0.80000000  0.40000000  1
  Pt  Pt26  1  0.55001610  0.54374064  0.59968048  1
  O  O27  1  0.55762548  0.51262280  0.68316291  1
  O  O28  1  0.41696518  0.65047820  0.71082566  1
  H  H29  1  0.47844444  0.69420463  0.73663116  1
