# generated using pymatgen
data_HAu27
_symmetry_space_group_name_H-M   'P 1'
_cell_length_a   8.57745306
_cell_length_b   8.57952124
_cell_length_c   25.48431000
_cell_angle_alpha   89.99453055
_cell_angle_beta   89.99330683
_cell_angle_gamma   96.00496057
_symmetry_Int_Tables_number   1
_chemical_formula_structural   HAu27
_chemical_formula_sum   'H1 Au27'
_cell_volume   1865.11095498
_cell_formula_units_Z   1
loop_
 _symmetry_equiv_pos_site_id
 _symmetry_equiv_pos_as_xyz
  1  'x, y, z'
loop_
 _atom_site_type_symbol
 _atom_site_label
 _atom_site_symmetry_multiplicity
 _atom_site_fract_x
 _atom_site_fract_y
 _atom_site_fract_z
 _atom_site_occupancy
  Au  Au0  1  0.00154164  0.33329696  0.54347956  1
  Au  Au1  1  0.99839878  0.66667000  0.54347639  1
  Au  Au2  1  0.99999022  0.99999277  0.54305568  1
  Au  Au3  1  0.33718342  0.33719148  0.54440050  1
  Au  Au4  1  0.33335693  0.66654827  0.54418915  1
  Au  Au5  1  0.33329348  0.00154364  0.54347874  1
  Au  Au6  1  0.66654970  0.33336286  0.54418924  1
  Au  Au7  1  0.66276887  0.66276540  0.54440945  1
  Au  Au8  1  0.66666927  0.99840090  0.54347549  1
  Au  Au9  1  0.16623218  0.16623231  0.62774222  1
  Au  Au10  1  0.16376450  0.49953726  0.62906478  1
  Au  Au11  1  0.16681578  0.83312330  0.62807581  1
  Au  Au12  1  0.49953787  0.16375719  0.62906234  1
  Au  Au13  1  0.49986262  0.49986340  0.63347523  1
  Au  Au14  1  0.50038526  0.83602077  0.62904869  1
  Au  Au15  1  0.83312373  0.16682407  0.62807593  1
  Au  Au16  1  0.83600856  0.50039293  0.62905116  1
  Au  Au17  1  0.83374490  0.83375336  0.62774191  1
  Au  Au18  1  0.16666600  0.16666800  0.45833300  1
  Au  Au19  1  0.16666600  0.50000100  0.45833300  1
  Au  Au20  1  0.16666600  0.83333400  0.45833300  1
  Au  Au21  1  0.50000000  0.16666800  0.45833300  1
  Au  Au22  1  0.50000000  0.50000100  0.45833300  1
  Au  Au23  1  0.50000000  0.83333400  0.45833300  1
  Au  Au24  1  0.83333300  0.16666800  0.45833300  1
  Au  Au25  1  0.83333300  0.50000100  0.45833300  1
  Au  Au26  1  0.83333300  0.83333400  0.45833300  1
  H  H27  1  0.49999474  0.50000029  0.69635722  1
