# generated using pymatgen
data_PtAu26O
_symmetry_space_group_name_H-M   'P 1'
_cell_length_a   8.57606266
_cell_length_b   8.57606266
_cell_length_c   23.65109797
_cell_angle_alpha   88.12641697
_cell_angle_beta   88.12641697
_cell_angle_gamma   63.40130658
_symmetry_Int_Tables_number   1
_chemical_formula_structural   PtAu26O
_chemical_formula_sum   'Pt1 Au26 O1'
_cell_volume   1554.26011481
_cell_formula_units_Z   1
loop_
 _symmetry_equiv_pos_site_id
 _symmetry_equiv_pos_as_xyz
  1  'x, y, z'
loop_
 _atom_site_type_symbol
 _atom_site_label
 _atom_site_symmetry_multiplicity
 _atom_site_fract_x
 _atom_site_fract_y
 _atom_site_fract_z
 _atom_site_occupancy
  Au  Au0  1  0.20699508  0.20699501  0.60558061  1
  Au  Au1  1  0.20583517  0.54040118  0.60489292  1
  Au  Au2  1  0.20223966  0.87630035  0.60528469  1
  Au  Au3  1  0.54040123  0.20583513  0.60489292  1
  Au  Au4  1  0.53553192  0.87828090  0.60534112  1
  Au  Au5  1  0.87630047  0.20223956  0.60528469  1
  Au  Au6  1  0.87828094  0.53553183  0.60534112  1
  Au  Au7  1  0.87150418  0.87150412  0.60505539  1
  Au  Au8  1  0.00042828  0.33478359  0.50279961  1
  Au  Au9  1  0.00183672  0.66884640  0.50255687  1
  Au  Au10  1  0.00135858  0.00135853  0.50257844  1
  Au  Au11  1  0.33359966  0.33359960  0.50276667  1
  Au  Au12  1  0.33928436  0.66431027  0.50486530  1
  Au  Au13  1  0.33478364  0.00042823  0.50279961  1
  Au  Au14  1  0.66431030  0.33928434  0.50486530  1
  Au  Au15  1  0.66718223  0.66718219  0.50506281  1
  Au  Au16  1  0.66884647  0.00183665  0.50255687  1
  Au  Au17  1  0.13333300  0.13333300  0.40000000  1
  Au  Au18  1  0.13333300  0.46666600  0.40000000  1
  Au  Au19  1  0.13333300  0.80000000  0.40000000  1
  Au  Au20  1  0.46666600  0.13333300  0.40000000  1
  Au  Au21  1  0.46666700  0.46666700  0.40000000  1
  Au  Au22  1  0.46666700  0.80000000  0.40000000  1
  Au  Au23  1  0.80000000  0.13333300  0.40000000  1
  Au  Au24  1  0.80000000  0.46666700  0.40000000  1
  Au  Au25  1  0.80000000  0.80000000  0.40000000  1
  Pt  Pt26  1  0.54199364  0.54199364  0.60677740  1
  O  O27  1  0.53012557  0.53012560  0.68745458  1
