# generated using pymatgen
data_Fe4Mo12H3S16N
_symmetry_space_group_name_H-M   'P 1'
_cell_length_a   6.48394610
_cell_length_b   6.41202525
_cell_length_c   27.90841600
_cell_angle_alpha   93.69337570
_cell_angle_beta   94.75362703
_cell_angle_gamma   97.43854579
_symmetry_Int_Tables_number   1
_chemical_formula_structural   Fe4Mo12H3S16N
_chemical_formula_sum   'Fe4 Mo12 H3 S16 N1'
_cell_volume   1143.25638445
_cell_formula_units_Z   1
loop_
 _symmetry_equiv_pos_site_id
 _symmetry_equiv_pos_as_xyz
  1  'x, y, z'
loop_
 _atom_site_type_symbol
 _atom_site_label
 _atom_site_symmetry_multiplicity
 _atom_site_fract_x
 _atom_site_fract_y
 _atom_site_fract_z
 _atom_site_occupancy
  Fe  Fe0  1  0.92189036  0.15425252  0.46401617  1
  Fe  Fe1  1  0.86518110  0.12995777  0.68652453  1
  Fe  Fe2  1  0.06524100  0.84263700  0.26375600  1
  Fe  Fe3  1  0.03169767  0.82794171  0.49856044  1
  Mo  Mo4  1  0.21933813  0.53711491  0.34329496  1
  Mo  Mo5  1  0.18101554  0.52789537  0.57508497  1
  Mo  Mo6  1  0.77425823  0.45941041  0.38782758  1
  Mo  Mo7  1  0.74054361  0.44297991  0.61891873  1
  Mo  Mo8  1  0.40375872  0.21576823  0.37467065  1
  Mo  Mo9  1  0.36746229  0.20540161  0.60716492  1
  Mo  Mo10  1  0.58975256  0.78171965  0.35582604  1
  Mo  Mo11  1  0.55468172  0.76757406  0.58752173  1
  Mo  Mo12  1  0.54135300  0.40905600  0.30082200  1
  Mo  Mo13  1  0.50686684  0.39542214  0.53176839  1
  Mo  Mo14  1  0.44731662  0.58799787  0.43086728  1
  Mo  Mo15  1  0.41874180  0.57743373  0.66034173  1
  S  S16  1  0.12431627  0.35573090  0.41633538  1
  S  S17  1  0.09208703  0.34827239  0.64899184  1
  S  S18  1  0.86842500  0.63937200  0.31349000  1
  S  S19  1  0.83140798  0.62687104  0.54620642  1
  S  S20  1  0.72301900  0.14241800  0.33608800  1
  S  S21  1  0.68237681  0.12656393  0.56730687  1
  S  S22  1  0.27292412  0.85566835  0.39444172  1
  S  S23  1  0.23965195  0.84647567  0.62789971  1
  S  S24  1  0.38478400  0.73178900  0.28021200  1
  S  S25  1  0.35071764  0.71869618  0.51123263  1
  S  S26  1  0.60393789  0.26625949  0.45144116  1
  S  S27  1  0.56569175  0.26949825  0.68506471  1
  S  S28  1  0.20162900  0.19284800  0.29629700  1
  S  S29  1  0.16525007  0.18077442  0.52765278  1
  S  S30  1  0.78698244  0.80435572  0.43575461  1
  S  S31  1  0.76200705  0.78132185  0.66648620  1
  N  N32  1  0.95016187  0.13865545  0.75957676  1
  H  H33  1  0.10828641  0.15089731  0.76971753  1
  H  H34  1  0.89753000  0.26336741  0.77781209  1
  H  H35  1  0.88265753  0.00455321  0.77371256  1
