# generated using pymatgen
data_HAu27
_symmetry_space_group_name_H-M   'P 1'
_cell_length_a   8.57745306
_cell_length_b   8.57952124
_cell_length_c   25.48431000
_cell_angle_alpha   89.99453055
_cell_angle_beta   89.99330683
_cell_angle_gamma   96.00496057
_symmetry_Int_Tables_number   1
_chemical_formula_structural   HAu27
_chemical_formula_sum   'H1 Au27'
_cell_volume   1865.11095498
_cell_formula_units_Z   1
loop_
 _symmetry_equiv_pos_site_id
 _symmetry_equiv_pos_as_xyz
  1  'x, y, z'
loop_
 _atom_site_type_symbol
 _atom_site_label
 _atom_site_symmetry_multiplicity
 _atom_site_fract_x
 _atom_site_fract_y
 _atom_site_fract_z
 _atom_site_occupancy
  Au  Au0  1  0.00132267  0.33287036  0.54399263  1
  Au  Au1  1  0.99863076  0.66711851  0.54398608  1
  Au  Au2  1  0.00000644  0.00000816  0.54376098  1
  Au  Au3  1  0.33663009  0.33663844  0.54490452  1
  Au  Au4  1  0.33325196  0.66665840  0.54460844  1
  Au  Au5  1  0.33286873  0.00132215  0.54398965  1
  Au  Au6  1  0.66666231  0.33325989  0.54460860  1
  Au  Au7  1  0.66330462  0.66330003  0.54491364  1
  Au  Au8  1  0.66711739  0.99863451  0.54398332  1
  Au  Au9  1  0.16585447  0.16585103  0.62922003  1
  Au  Au10  1  0.16323251  0.49980163  0.62972581  1
  Au  Au11  1  0.16655308  0.83341368  0.62946290  1
  Au  Au12  1  0.49980111  0.16322297  0.62972170  1
  Au  Au13  1  0.49988443  0.49988396  0.63379937  1
  Au  Au14  1  0.50015928  0.83663757  0.62970721  1
  Au  Au15  1  0.83341329  0.16655714  0.62946292  1
  Au  Au16  1  0.83662642  0.50016370  0.62971140  1
  Au  Au17  1  0.83410309  0.83411034  0.62921143  1
  Au  Au18  1  0.16666600  0.16666800  0.45833300  1
  Au  Au19  1  0.16666600  0.50000100  0.45833300  1
  Au  Au20  1  0.16666600  0.83333400  0.45833300  1
  Au  Au21  1  0.50000000  0.16666800  0.45833300  1
  Au  Au22  1  0.50000000  0.50000100  0.45833300  1
  Au  Au23  1  0.50000000  0.83333400  0.45833300  1
  Au  Au24  1  0.83333300  0.16666800  0.45833300  1
  Au  Au25  1  0.83333300  0.50000100  0.45833300  1
  Au  Au26  1  0.83333300  0.83333400  0.45833300  1
  H  H27  1  0.49996801  0.49997338  0.69705153  1
