# generated using pymatgen
data_Ni26MoH
_symmetry_space_group_name_H-M   'P 1'
_cell_length_a   7.33150949
_cell_length_b   7.33150889
_cell_length_c   21.99719400
_cell_angle_alpha   90.00513446
_cell_angle_beta   93.17934504
_cell_angle_gamma   119.99848735
_symmetry_Int_Tables_number   1
_chemical_formula_structural   Ni26MoH
_chemical_formula_sum   'Ni26 Mo1 H1'
_cell_volume   1021.87426739
_cell_formula_units_Z   1
loop_
 _symmetry_equiv_pos_site_id
 _symmetry_equiv_pos_as_xyz
  1  'x, y, z'
loop_
 _atom_site_type_symbol
 _atom_site_label
 _atom_site_symmetry_multiplicity
 _atom_site_fract_x
 _atom_site_fract_y
 _atom_site_fract_z
 _atom_site_occupancy
  Ni  Ni0  1  0.09090900  0.04545500  0.40909100  1
  Ni  Ni1  1  0.09090900  0.37878800  0.40909100  1
  Ni  Ni2  1  0.09090900  0.71212100  0.40909100  1
  Ni  Ni3  1  0.42424200  0.04545500  0.40909100  1
  Ni  Ni4  1  0.42424200  0.37878800  0.40909100  1
  Ni  Ni5  1  0.42424200  0.71212100  0.40909100  1
  Ni  Ni6  1  0.75757600  0.04545500  0.40909100  1
  Ni  Ni7  1  0.75757600  0.37878800  0.40909100  1
  Ni  Ni8  1  0.75757600  0.71212100  0.40909100  1
  Ni  Ni9  1  0.33348896  0.16664547  0.50165678  1
  Ni  Ni10  1  0.33130038  0.49853734  0.50186048  1
  Ni  Ni11  1  0.33367557  0.83431798  0.50147602  1
  Ni  Ni12  1  0.66652862  0.16823093  0.50132271  1
  Ni  Ni13  1  0.66775962  0.49860732  0.50183897  1
  Ni  Ni14  1  0.66859612  0.83713721  0.50050313  1
  Ni  Ni15  1  0.00194780  0.16817074  0.50132050  1
  Ni  Ni16  1  0.00006487  0.50010888  0.50042478  1
  Ni  Ni17  1  0.00095897  0.83425309  0.50146639  1
  Ni  Ni18  1  0.23961995  0.28651868  0.59617058  1
  Ni  Ni19  1  0.24130529  0.62282254  0.59389516  1
  Ni  Ni20  1  0.24168788  0.95276880  0.59277620  1
  Ni  Ni21  1  0.57863860  0.28650627  0.59614544  1
  Ni  Ni22  1  0.57650352  0.95695093  0.59360762  1
  Ni  Ni23  1  0.90971260  0.28913765  0.59201354  1
  Ni  Ni24  1  0.91248599  0.62278953  0.59388888  1
  Ni  Ni25  1  0.91142939  0.95692550  0.59357600  1
  Mo  Mo26  1  0.57810129  0.62582389  0.59205320  1
  H  H27  1  0.45670475  0.36603017  0.64240995  1
