# generated using pymatgen
data_Ni26MoH
_symmetry_space_group_name_H-M   'P 1'
_cell_length_a   7.33150949
_cell_length_b   7.33150889
_cell_length_c   21.99719400
_cell_angle_alpha   90.00513446
_cell_angle_beta   93.17934504
_cell_angle_gamma   119.99848735
_symmetry_Int_Tables_number   1
_chemical_formula_structural   Ni26MoH
_chemical_formula_sum   'Ni26 Mo1 H1'
_cell_volume   1021.87426739
_cell_formula_units_Z   1
loop_
 _symmetry_equiv_pos_site_id
 _symmetry_equiv_pos_as_xyz
  1  'x, y, z'
loop_
 _atom_site_type_symbol
 _atom_site_label
 _atom_site_symmetry_multiplicity
 _atom_site_fract_x
 _atom_site_fract_y
 _atom_site_fract_z
 _atom_site_occupancy
  Ni  Ni0  1  0.09090900  0.04545500  0.40909100  1
  Ni  Ni1  1  0.09090900  0.37878800  0.40909100  1
  Ni  Ni2  1  0.09090900  0.71212100  0.40909100  1
  Ni  Ni3  1  0.42424200  0.04545500  0.40909100  1
  Ni  Ni4  1  0.42424200  0.37878800  0.40909100  1
  Ni  Ni5  1  0.42424200  0.71212100  0.40909100  1
  Ni  Ni6  1  0.75757600  0.04545500  0.40909100  1
  Ni  Ni7  1  0.75757600  0.37878800  0.40909100  1
  Ni  Ni8  1  0.75757600  0.71212100  0.40909100  1
  Ni  Ni9  1  0.33406150  0.16720097  0.50126021  1
  Ni  Ni10  1  0.33212765  0.49923008  0.50159303  1
  Ni  Ni11  1  0.33419875  0.83488592  0.50106984  1
  Ni  Ni12  1  0.66732649  0.16898151  0.50094945  1
  Ni  Ni13  1  0.66819222  0.49926401  0.50163130  1
  Ni  Ni14  1  0.66909724  0.83765081  0.50009972  1
  Ni  Ni15  1  0.00231173  0.16890921  0.50084636  1
  Ni  Ni16  1  0.00045430  0.50051988  0.49983888  1
  Ni  Ni17  1  0.00151723  0.83481127  0.50109690  1
  Ni  Ni18  1  0.24028048  0.28719465  0.59529531  1
  Ni  Ni19  1  0.24188377  0.62372807  0.59293341  1
  Ni  Ni20  1  0.24271354  0.95396010  0.59234910  1
  Ni  Ni21  1  0.57913951  0.28729723  0.59545191  1
  Ni  Ni22  1  0.57709386  0.95795334  0.59267710  1
  Ni  Ni23  1  0.91054112  0.29020525  0.59158300  1
  Ni  Ni24  1  0.91339614  0.62372130  0.59299787  1
  Ni  Ni25  1  0.91234706  0.95788745  0.59262136  1
  Mo  Mo26  1  0.57874902  0.62637569  0.59180825  1
  H  H27  1  0.45613689  0.36548427  0.64158585  1
