# generated using pymatgen
data_HPd27O2
_symmetry_space_group_name_H-M   'P 1'
_cell_length_a   8.25699600
_cell_length_b   8.25682200
_cell_length_c   23.35403400
_cell_angle_alpha   89.99925057
_cell_angle_beta   89.99908404
_cell_angle_gamma   89.99983345
_symmetry_Int_Tables_number   1
_chemical_formula_structural   HPd27O2
_chemical_formula_sum   'Pd27 H1 O2'
_cell_volume   1592.19737858
_cell_formula_units_Z   1
loop_
 _symmetry_equiv_pos_site_id
 _symmetry_equiv_pos_as_xyz
  1  'x, y, z'
loop_
 _atom_site_type_symbol
 _atom_site_label
 _atom_site_symmetry_multiplicity
 _atom_site_fract_x
 _atom_site_fract_y
 _atom_site_fract_z
 _atom_site_occupancy
  Pd  Pd0  1  0.00000100  0.33333500  0.45838000  1
  Pd  Pd1  1  0.00000100  0.66666800  0.45838000  1
  Pd  Pd2  1  0.00000100  0.00000100  0.45838000  1
  Pd  Pd3  1  0.33333400  0.33333500  0.45838000  1
  Pd  Pd4  1  0.33333400  0.66666800  0.45838000  1
  Pd  Pd5  1  0.33333400  0.00000100  0.45838000  1
  Pd  Pd6  1  0.66666700  0.33333500  0.45838000  1
  Pd  Pd7  1  0.66666700  0.66666800  0.45838000  1
  Pd  Pd8  1  0.66666700  0.00000100  0.45838000  1
  Pd  Pd9  1  0.16666300  0.16666600  0.37499900  1
  Pd  Pd10  1  0.16666300  0.50000000  0.37499900  1
  Pd  Pd11  1  0.16666300  0.83333300  0.37499900  1
  Pd  Pd12  1  0.49999600  0.16666600  0.37499900  1
  Pd  Pd13  1  0.49999600  0.50000000  0.37499900  1
  Pd  Pd14  1  0.49999600  0.83333300  0.37499900  1
  Pd  Pd15  1  0.83333000  0.16666600  0.37499900  1
  Pd  Pd16  1  0.83333000  0.50000000  0.37499900  1
  Pd  Pd17  1  0.83333000  0.83333300  0.37499900  1
  Pd  Pd18  1  0.16566192  0.16660396  0.54194262  1
  Pd  Pd19  1  0.16555695  0.50027393  0.54188011  1
  Pd  Pd20  1  0.16583792  0.83396106  0.54212848  1
  Pd  Pd21  1  0.49896884  0.16784569  0.54256234  1
  Pd  Pd22  1  0.49692713  0.50587373  0.54431011  1
  Pd  Pd23  1  0.49943344  0.83540019  0.54161414  1
  Pd  Pd24  1  0.83312421  0.16697157  0.54183057  1
  Pd  Pd25  1  0.83360743  0.50090925  0.54244168  1
  Pd  Pd26  1  0.83340181  0.83434956  0.54189840  1
  O  O27  1  0.55138426  0.45253535  0.62426598  1
  O  O28  1  0.44960402  0.54350010  0.66022610  1
  H  H29  1  0.52523678  0.62168526  0.67926892  1
