# generated using pymatgen
data_HPd27
_symmetry_space_group_name_H-M   'P 1'
_cell_length_a   8.25699600
_cell_length_b   8.25682200
_cell_length_c   23.35403400
_cell_angle_alpha   89.99925057
_cell_angle_beta   89.99908404
_cell_angle_gamma   89.99983345
_symmetry_Int_Tables_number   1
_chemical_formula_structural   HPd27
_chemical_formula_sum   'Pd27 H1'
_cell_volume   1592.19737858
_cell_formula_units_Z   1
loop_
 _symmetry_equiv_pos_site_id
 _symmetry_equiv_pos_as_xyz
  1  'x, y, z'
loop_
 _atom_site_type_symbol
 _atom_site_label
 _atom_site_symmetry_multiplicity
 _atom_site_fract_x
 _atom_site_fract_y
 _atom_site_fract_z
 _atom_site_occupancy
  Pd  Pd0  1  0.00000200  0.33333400  0.45833700  1
  Pd  Pd1  1  0.00000200  0.66666700  0.45833700  1
  Pd  Pd2  1  0.00000200  0.00000000  0.45833700  1
  Pd  Pd3  1  0.33333600  0.33333300  0.45833700  1
  Pd  Pd4  1  0.33333600  0.66666700  0.45833700  1
  Pd  Pd5  1  0.33333600  0.00000000  0.45833700  1
  Pd  Pd6  1  0.66666900  0.33333300  0.45833700  1
  Pd  Pd7  1  0.66666900  0.66666700  0.45833700  1
  Pd  Pd8  1  0.66666900  0.00000000  0.45833700  1
  Pd  Pd9  1  0.16666300  0.16666600  0.37499900  1
  Pd  Pd10  1  0.16666300  0.50000000  0.37499900  1
  Pd  Pd11  1  0.16666300  0.83333300  0.37499900  1
  Pd  Pd12  1  0.49999600  0.16666600  0.37499900  1
  Pd  Pd13  1  0.49999600  0.50000000  0.37499900  1
  Pd  Pd14  1  0.49999600  0.83333300  0.37499900  1
  Pd  Pd15  1  0.83333000  0.16666600  0.37499900  1
  Pd  Pd16  1  0.83333000  0.50000000  0.37499900  1
  Pd  Pd17  1  0.83333000  0.83333300  0.37499900  1
  Pd  Pd18  1  0.16597541  0.16597389  0.54237794  1
  Pd  Pd19  1  0.16771363  0.49999192  0.54208381  1
  Pd  Pd20  1  0.16597527  0.83400993  0.54237844  1
  Pd  Pd21  1  0.49999363  0.16771138  0.54208395  1
  Pd  Pd22  1  0.49999580  0.49999435  0.54594216  1
  Pd  Pd23  1  0.49999328  0.83227563  0.54208468  1
  Pd  Pd24  1  0.83401202  0.16597370  0.54237858  1
  Pd  Pd25  1  0.83227676  0.49999165  0.54208462  1
  Pd  Pd26  1  0.83401268  0.83401070  0.54237914  1
  H  H27  1  0.49999800  0.50000051  0.61235781  1
