# generated using pymatgen
data_Fe4Mo12HS16
_symmetry_space_group_name_H-M   'P 1'
_cell_length_a   6.48394610
_cell_length_b   6.41202525
_cell_length_c   27.90841600
_cell_angle_alpha   93.69337570
_cell_angle_beta   94.75362703
_cell_angle_gamma   97.43854579
_symmetry_Int_Tables_number   1
_chemical_formula_structural   Fe4Mo12HS16
_chemical_formula_sum   'Fe4 Mo12 H1 S16'
_cell_volume   1143.25638445
_cell_formula_units_Z   1
loop_
 _symmetry_equiv_pos_site_id
 _symmetry_equiv_pos_as_xyz
  1  'x, y, z'
loop_
 _atom_site_type_symbol
 _atom_site_label
 _atom_site_symmetry_multiplicity
 _atom_site_fract_x
 _atom_site_fract_y
 _atom_site_fract_z
 _atom_site_occupancy
  Fe  Fe0  1  0.92774286  0.15275151  0.46542719  1
  Fe  Fe1  1  0.79834265  0.10546079  0.64962003  1
  Fe  Fe2  1  0.06524100  0.84263700  0.26375600  1
  Fe  Fe3  1  0.04623391  0.83432260  0.49691260  1
  Mo  Mo4  1  0.22040167  0.53764559  0.34367462  1
  Mo  Mo5  1  0.19568692  0.52543351  0.57624630  1
  Mo  Mo6  1  0.77645398  0.45912353  0.38782506  1
  Mo  Mo7  1  0.75687074  0.45728032  0.61642638  1
  Mo  Mo8  1  0.40517230  0.21683555  0.37492804  1
  Mo  Mo9  1  0.38473067  0.20245370  0.60812596  1
  Mo  Mo10  1  0.59094114  0.78121454  0.35591219  1
  Mo  Mo11  1  0.56314657  0.77037216  0.58835433  1
  Mo  Mo12  1  0.54135300  0.40905600  0.30082200  1
  Mo  Mo13  1  0.51940839  0.39965861  0.53221057  1
  Mo  Mo14  1  0.45104254  0.58878271  0.43096102  1
  Mo  Mo15  1  0.42841666  0.56248006  0.66141261  1
  S  S16  1  0.12688849  0.35627728  0.41698999  1
  S  S17  1  0.09603362  0.33966798  0.64915251  1
  S  S18  1  0.86842500  0.63937200  0.31349000  1
  S  S19  1  0.84533157  0.63630855  0.54555576  1
  S  S20  1  0.72301900  0.14241800  0.33608800  1
  S  S21  1  0.69724717  0.12481183  0.56609419  1
  S  S22  1  0.27444865  0.85638536  0.39501327  1
  S  S23  1  0.25270045  0.84090781  0.63024699  1
  S  S24  1  0.38478400  0.73178900  0.28021200  1
  S  S25  1  0.36120229  0.71834935  0.51218194  1
  S  S26  1  0.60903594  0.26654216  0.45146171  1
  S  S27  1  0.57011596  0.25748005  0.69394272  1
  S  S28  1  0.20162900  0.19284800  0.29629700  1
  S  S29  1  0.18098071  0.18139741  0.52861185  1
  S  S30  1  0.79029539  0.80417058  0.43570130  1
  S  S31  1  0.76666241  0.77204669  0.67094588  1
  H  H32  1  0.42516735  0.11151946  0.71170433  1
