# generated using pymatgen
data_Ni26MoH
_symmetry_space_group_name_H-M   'P 1'
_cell_length_a   7.33150949
_cell_length_b   7.33150889
_cell_length_c   21.99719400
_cell_angle_alpha   90.00513446
_cell_angle_beta   93.17934504
_cell_angle_gamma   119.99848735
_symmetry_Int_Tables_number   1
_chemical_formula_structural   Ni26MoH
_chemical_formula_sum   'Ni26 Mo1 H1'
_cell_volume   1021.87426739
_cell_formula_units_Z   1
loop_
 _symmetry_equiv_pos_site_id
 _symmetry_equiv_pos_as_xyz
  1  'x, y, z'
loop_
 _atom_site_type_symbol
 _atom_site_label
 _atom_site_symmetry_multiplicity
 _atom_site_fract_x
 _atom_site_fract_y
 _atom_site_fract_z
 _atom_site_occupancy
  Ni  Ni0  1  0.09090900  0.04545500  0.40909100  1
  Ni  Ni1  1  0.09090900  0.37878800  0.40909100  1
  Ni  Ni2  1  0.09090900  0.71212100  0.40909100  1
  Ni  Ni3  1  0.42424200  0.04545500  0.40909100  1
  Ni  Ni4  1  0.42424200  0.37878800  0.40909100  1
  Ni  Ni5  1  0.42424200  0.71212100  0.40909100  1
  Ni  Ni6  1  0.75757600  0.04545500  0.40909100  1
  Ni  Ni7  1  0.75757600  0.37878800  0.40909100  1
  Ni  Ni8  1  0.75757600  0.71212100  0.40909100  1
  Ni  Ni9  1  0.33592990  0.16541860  0.50174636  1
  Ni  Ni10  1  0.33375163  0.49774987  0.50197366  1
  Ni  Ni11  1  0.33594202  0.83305165  0.50172115  1
  Ni  Ni12  1  0.66899821  0.16706466  0.50142617  1
  Ni  Ni13  1  0.67014968  0.49758526  0.50194290  1
  Ni  Ni14  1  0.67108275  0.83629147  0.50076009  1
  Ni  Ni15  1  0.00422601  0.16693404  0.50144585  1
  Ni  Ni16  1  0.00245369  0.49918435  0.50083930  1
  Ni  Ni17  1  0.00325439  0.83319159  0.50174555  1
  Ni  Ni18  1  0.24347206  0.28487503  0.59592566  1
  Ni  Ni19  1  0.24607043  0.62154879  0.59457430  1
  Ni  Ni20  1  0.24635051  0.95137440  0.59315123  1
  Ni  Ni21  1  0.58281913  0.28524147  0.59619915  1
  Ni  Ni22  1  0.58090317  0.95553447  0.59398784  1
  Ni  Ni23  1  0.91378045  0.28754895  0.59227716  1
  Ni  Ni24  1  0.91711302  0.62159002  0.59445502  1
  Ni  Ni25  1  0.91581601  0.95538305  0.59430072  1
  Mo  Mo26  1  0.58234598  0.62431284  0.59227246  1
  H  H27  1  0.46089661  0.36438401  0.64248979  1
