# generated using pymatgen
data_Fe4Mo12HS16
_symmetry_space_group_name_H-M   'P 1'
_cell_length_a   6.48394610
_cell_length_b   6.41202525
_cell_length_c   27.90841600
_cell_angle_alpha   93.69337570
_cell_angle_beta   94.75362703
_cell_angle_gamma   97.43854579
_symmetry_Int_Tables_number   1
_chemical_formula_structural   Fe4Mo12HS16
_chemical_formula_sum   'Fe4 Mo12 H1 S16'
_cell_volume   1143.25638445
_cell_formula_units_Z   1
loop_
 _symmetry_equiv_pos_site_id
 _symmetry_equiv_pos_as_xyz
  1  'x, y, z'
loop_
 _atom_site_type_symbol
 _atom_site_label
 _atom_site_symmetry_multiplicity
 _atom_site_fract_x
 _atom_site_fract_y
 _atom_site_fract_z
 _atom_site_occupancy
  Fe  Fe0  1  0.93591758  0.16376957  0.46881265  1
  Fe  Fe1  1  0.84986180  0.13194620  0.65918470  1
  Fe  Fe2  1  0.06524100  0.84263700  0.26375600  1
  Fe  Fe3  1  0.06518296  0.84646965  0.49400596  1
  Mo  Mo4  1  0.21996339  0.53930612  0.34372260  1
  Mo  Mo5  1  0.21925446  0.54168805  0.57696355  1
  Mo  Mo6  1  0.78167637  0.46021855  0.38768325  1
  Mo  Mo7  1  0.78344591  0.46912020  0.61638488  1
  Mo  Mo8  1  0.40769020  0.21896799  0.37507730  1
  Mo  Mo9  1  0.40794536  0.22106837  0.60962323  1
  Mo  Mo10  1  0.59304084  0.78240996  0.35580033  1
  Mo  Mo11  1  0.58984126  0.78244153  0.58820645  1
  Mo  Mo12  1  0.54135300  0.40905600  0.30082200  1
  Mo  Mo13  1  0.53947239  0.41083148  0.53260652  1
  Mo  Mo14  1  0.45731244  0.59232441  0.43098083  1
  Mo  Mo15  1  0.45822071  0.58484575  0.66226342  1
  S  S16  1  0.13174186  0.35922323  0.41771795  1
  S  S17  1  0.12786948  0.36665161  0.65103468  1
  S  S18  1  0.86842500  0.63937200  0.31349000  1
  S  S19  1  0.86810150  0.64553073  0.54463514  1
  S  S20  1  0.72301900  0.14241800  0.33608800  1
  S  S21  1  0.72046912  0.14003284  0.56655760  1
  S  S22  1  0.27573274  0.85836290  0.39517395  1
  S  S23  1  0.28144230  0.85960909  0.63037988  1
  S  S24  1  0.38478400  0.73178900  0.28021200  1
  S  S25  1  0.38119789  0.73126454  0.51260860  1
  S  S26  1  0.61529011  0.26965202  0.45113967  1
  S  S27  1  0.60189066  0.28430476  0.69498330  1
  S  S28  1  0.20162900  0.19284800  0.29629700  1
  S  S29  1  0.20185626  0.19333744  0.52996182  1
  S  S30  1  0.79677847  0.80988982  0.43512894  1
  S  S31  1  0.79808138  0.78721263  0.67030156  1
  H  H32  1  0.48357213  0.15916035  0.72373863  1
