# generated using pymatgen
data_PtAu26O
_symmetry_space_group_name_H-M   'P 1'
_cell_length_a   8.57606266
_cell_length_b   8.57606266
_cell_length_c   23.65109797
_cell_angle_alpha   88.12641697
_cell_angle_beta   88.12641697
_cell_angle_gamma   63.40130658
_symmetry_Int_Tables_number   1
_chemical_formula_structural   PtAu26O
_chemical_formula_sum   'Pt1 Au26 O1'
_cell_volume   1554.26011481
_cell_formula_units_Z   1
loop_
 _symmetry_equiv_pos_site_id
 _symmetry_equiv_pos_as_xyz
  1  'x, y, z'
loop_
 _atom_site_type_symbol
 _atom_site_label
 _atom_site_symmetry_multiplicity
 _atom_site_fract_x
 _atom_site_fract_y
 _atom_site_fract_z
 _atom_site_occupancy
  Au  Au0  1  0.20532720  0.20532715  0.60561160  1
  Au  Au1  1  0.20427075  0.53904118  0.60488420  1
  Au  Au2  1  0.20023457  0.87481703  0.60522844  1
  Au  Au3  1  0.53904122  0.20427071  0.60488421  1
  Au  Au4  1  0.53349402  0.87728209  0.60524396  1
  Au  Au5  1  0.87481703  0.20023456  0.60522845  1
  Au  Au6  1  0.87728210  0.53349402  0.60524395  1
  Au  Au7  1  0.86974111  0.86974109  0.60510471  1
  Au  Au8  1  0.99920175  0.33373896  0.50261397  1
  Au  Au9  1  0.00090370  0.66776738  0.50235724  1
  Au  Au10  1  0.00027272  0.00027273  0.50239625  1
  Au  Au11  1  0.33242424  0.33242419  0.50279674  1
  Au  Au12  1  0.33870497  0.66287614  0.50476656  1
  Au  Au13  1  0.33373902  0.99920176  0.50261398  1
  Au  Au14  1  0.66287613  0.33870495  0.50476657  1
  Au  Au15  1  0.66605891  0.66605882  0.50478190  1
  Au  Au16  1  0.66776739  0.00090366  0.50235723  1
  Au  Au17  1  0.13333300  0.13333300  0.40000000  1
  Au  Au18  1  0.13333300  0.46666600  0.40000000  1
  Au  Au19  1  0.13333300  0.80000000  0.40000000  1
  Au  Au20  1  0.46666600  0.13333300  0.40000000  1
  Au  Au21  1  0.46666700  0.46666700  0.40000000  1
  Au  Au22  1  0.46666700  0.80000000  0.40000000  1
  Au  Au23  1  0.80000000  0.13333300  0.40000000  1
  Au  Au24  1  0.80000000  0.46666700  0.40000000  1
  Au  Au25  1  0.80000000  0.80000000  0.40000000  1
  Pt  Pt26  1  0.54119480  0.54119482  0.60722456  1
  O  O27  1  0.52821539  0.52821536  0.68728530  1
