# generated using pymatgen
data_Fe4Mo12H3S16N
_symmetry_space_group_name_H-M   'P 1'
_cell_length_a   6.48394610
_cell_length_b   6.41202525
_cell_length_c   27.90841600
_cell_angle_alpha   93.69337570
_cell_angle_beta   94.75362703
_cell_angle_gamma   97.43854579
_symmetry_Int_Tables_number   1
_chemical_formula_structural   Fe4Mo12H3S16N
_chemical_formula_sum   'Fe4 Mo12 H3 S16 N1'
_cell_volume   1143.25638445
_cell_formula_units_Z   1
loop_
 _symmetry_equiv_pos_site_id
 _symmetry_equiv_pos_as_xyz
  1  'x, y, z'
loop_
 _atom_site_type_symbol
 _atom_site_label
 _atom_site_symmetry_multiplicity
 _atom_site_fract_x
 _atom_site_fract_y
 _atom_site_fract_z
 _atom_site_occupancy
  Fe  Fe0  1  0.91973394  0.15195220  0.45729769  1
  Fe  Fe1  1  0.86347507  0.12194685  0.68466061  1
  Fe  Fe2  1  0.06524100  0.84263700  0.26375600  1
  Fe  Fe3  1  0.04036868  0.82941432  0.50324305  1
  Mo  Mo4  1  0.22112914  0.53897147  0.34319509  1
  Mo  Mo5  1  0.17460998  0.52369811  0.57404818  1
  Mo  Mo6  1  0.78151830  0.46042992  0.38745660  1
  Mo  Mo7  1  0.73604879  0.43598515  0.61760900  1
  Mo  Mo8  1  0.40691506  0.21816246  0.37466799  1
  Mo  Mo9  1  0.36194750  0.20067554  0.60538410  1
  Mo  Mo10  1  0.59335890  0.78138574  0.35573288  1
  Mo  Mo11  1  0.55102976  0.76275673  0.58666841  1
  Mo  Mo12  1  0.54135300  0.40905600  0.30082200  1
  Mo  Mo13  1  0.50486508  0.39084477  0.52983486  1
  Mo  Mo14  1  0.45232691  0.59161864  0.43134373  1
  Mo  Mo15  1  0.41512491  0.56991596  0.65894799  1
  S  S16  1  0.13025793  0.36000853  0.41553920  1
  S  S17  1  0.08828130  0.34320349  0.64755661  1
  S  S18  1  0.86842500  0.63937200  0.31349000  1
  S  S19  1  0.82755616  0.62539967  0.54613758  1
  S  S20  1  0.72301900  0.14241800  0.33608800  1
  S  S21  1  0.67744968  0.12093229  0.56576837  1
  S  S22  1  0.27825251  0.85789700  0.39441304  1
  S  S23  1  0.23647504  0.84149032  0.62741257  1
  S  S24  1  0.38478400  0.73178900  0.28021200  1
  S  S25  1  0.34830059  0.71317533  0.51028268  1
  S  S26  1  0.60981445  0.26938238  0.45105234  1
  S  S27  1  0.56186625  0.26066635  0.68320542  1
  S  S28  1  0.20162900  0.19284800  0.29629700  1
  S  S29  1  0.15815347  0.18304042  0.52375933  1
  S  S30  1  0.79878548  0.80002105  0.43751290  1
  S  S31  1  0.75857671  0.77235472  0.66595489  1
  N  N32  1  0.95432578  0.13621822  0.75774896  1
  H  H33  1  0.11205698  0.15119678  0.76768858  1
  H  H34  1  0.89934561  0.26012229  0.77584014  1
  H  H35  1  0.88883473  0.00155360  0.77213338  1
