# generated using pymatgen
data_Fe4Mo12HS16
_symmetry_space_group_name_H-M   'P 1'
_cell_length_a   6.48394610
_cell_length_b   6.41202525
_cell_length_c   27.90841600
_cell_angle_alpha   93.69337570
_cell_angle_beta   94.75362703
_cell_angle_gamma   97.43854579
_symmetry_Int_Tables_number   1
_chemical_formula_structural   Fe4Mo12HS16
_chemical_formula_sum   'Fe4 Mo12 H1 S16'
_cell_volume   1143.25638445
_cell_formula_units_Z   1
loop_
 _symmetry_equiv_pos_site_id
 _symmetry_equiv_pos_as_xyz
  1  'x, y, z'
loop_
 _atom_site_type_symbol
 _atom_site_label
 _atom_site_symmetry_multiplicity
 _atom_site_fract_x
 _atom_site_fract_y
 _atom_site_fract_z
 _atom_site_occupancy
  Fe  Fe0  1  0.93280231  0.15573858  0.46468490  1
  Fe  Fe1  1  0.83316280  0.10388699  0.65540402  1
  Fe  Fe2  1  0.06524100  0.84263700  0.26375600  1
  Fe  Fe3  1  0.04638210  0.83504937  0.49755138  1
  Mo  Mo4  1  0.21945806  0.53855094  0.34336832  1
  Mo  Mo5  1  0.19532470  0.53156993  0.57586074  1
  Mo  Mo6  1  0.77974325  0.45943008  0.38771271  1
  Mo  Mo7  1  0.75308265  0.45352058  0.61886937  1
  Mo  Mo8  1  0.40674237  0.21776467  0.37492856  1
  Mo  Mo9  1  0.38311082  0.20865010  0.60811175  1
  Mo  Mo10  1  0.59179298  0.78208044  0.35578007  1
  Mo  Mo11  1  0.56699714  0.77366285  0.58881839  1
  Mo  Mo12  1  0.54135300  0.40905600  0.30082200  1
  Mo  Mo13  1  0.52096841  0.40365617  0.53251237  1
  Mo  Mo14  1  0.45371506  0.59089191  0.43085632  1
  Mo  Mo15  1  0.42982589  0.57582702  0.66112335  1
  S  S16  1  0.12981747  0.35879912  0.41681000  1
  S  S17  1  0.10161470  0.35359661  0.64852924  1
  S  S18  1  0.86842500  0.63937200  0.31349000  1
  S  S19  1  0.84574558  0.63749516  0.54656130  1
  S  S20  1  0.72301900  0.14241800  0.33608800  1
  S  S21  1  0.70111537  0.12944928  0.56788220  1
  S  S22  1  0.27575162  0.85737690  0.39469490  1
  S  S23  1  0.25232477  0.84927103  0.62931925  1
  S  S24  1  0.38478400  0.73178900  0.28021200  1
  S  S25  1  0.36527236  0.72418562  0.51193740  1
  S  S26  1  0.61196740  0.26839264  0.45160885  1
  S  S27  1  0.58662787  0.27408540  0.68726457  1
  S  S28  1  0.20162900  0.19284800  0.29629700  1
  S  S29  1  0.18061234  0.18777820  0.52807006  1
  S  S30  1  0.79503417  0.80592878  0.43530574  1
  S  S31  1  0.77154255  0.77189347  0.67081927  1
  H  H32  1  0.93863696  0.09349691  0.70499595  1
