# generated using pymatgen
data_HPd27
_symmetry_space_group_name_H-M   'P 1'
_cell_length_a   8.25699600
_cell_length_b   8.25682200
_cell_length_c   23.35403400
_cell_angle_alpha   89.99925057
_cell_angle_beta   89.99908404
_cell_angle_gamma   89.99983345
_symmetry_Int_Tables_number   1
_chemical_formula_structural   HPd27
_chemical_formula_sum   'Pd27 H1'
_cell_volume   1592.19737858
_cell_formula_units_Z   1
loop_
 _symmetry_equiv_pos_site_id
 _symmetry_equiv_pos_as_xyz
  1  'x, y, z'
loop_
 _atom_site_type_symbol
 _atom_site_label
 _atom_site_symmetry_multiplicity
 _atom_site_fract_x
 _atom_site_fract_y
 _atom_site_fract_z
 _atom_site_occupancy
  Pd  Pd0  1  0.99999900  0.33333400  0.45907000  1
  Pd  Pd1  1  0.00000000  0.66666500  0.45907000  1
  Pd  Pd2  1  0.00000000  0.00000200  0.45907000  1
  Pd  Pd3  1  0.33332900  0.33333400  0.45907000  1
  Pd  Pd4  1  0.33332900  0.66666700  0.45907000  1
  Pd  Pd5  1  0.33333000  0.00000000  0.45907000  1
  Pd  Pd6  1  0.66666400  0.33333400  0.45906900  1
  Pd  Pd7  1  0.66666200  0.66666600  0.45906900  1
  Pd  Pd8  1  0.66666200  0.00000200  0.45906900  1
  Pd  Pd9  1  0.16666300  0.16666600  0.37499900  1
  Pd  Pd10  1  0.16666300  0.50000000  0.37499900  1
  Pd  Pd11  1  0.16666300  0.83333300  0.37499900  1
  Pd  Pd12  1  0.49999600  0.16666600  0.37499900  1
  Pd  Pd13  1  0.49999600  0.50000000  0.37499900  1
  Pd  Pd14  1  0.49999600  0.83333300  0.37499900  1
  Pd  Pd15  1  0.83333000  0.16666600  0.37499900  1
  Pd  Pd16  1  0.83333000  0.50000000  0.37499900  1
  Pd  Pd17  1  0.83333000  0.83333300  0.37499900  1
  Pd  Pd18  1  0.16666160  0.16666482  0.54319010  1
  Pd  Pd19  1  0.16666200  0.49970470  0.54294086  1
  Pd  Pd20  1  0.16666231  0.83362391  0.54294064  1
  Pd  Pd21  1  0.49970138  0.16666607  0.54293966  1
  Pd  Pd22  1  0.50020200  0.50020514  0.54416063  1
  Pd  Pd23  1  0.50020290  0.83313346  0.54415996  1
  Pd  Pd24  1  0.83362005  0.16666621  0.54293959  1
  Pd  Pd25  1  0.83312866  0.50020590  0.54415981  1
  Pd  Pd26  1  0.83312926  0.83313394  0.54415798  1
  H  H27  1  0.66665050  0.66665263  0.56172023  1
