# generated using pymatgen
data_HAu27O
_symmetry_space_group_name_H-M   'P 1'
_cell_length_a   8.57745306
_cell_length_b   8.57952124
_cell_length_c   25.48431000
_cell_angle_alpha   89.99453055
_cell_angle_beta   89.99330683
_cell_angle_gamma   96.00496057
_symmetry_Int_Tables_number   1
_chemical_formula_structural   HAu27O
_chemical_formula_sum   'H1 Au27 O1'
_cell_volume   1865.11095498
_cell_formula_units_Z   1
loop_
 _symmetry_equiv_pos_site_id
 _symmetry_equiv_pos_as_xyz
  1  'x, y, z'
loop_
 _atom_site_type_symbol
 _atom_site_label
 _atom_site_symmetry_multiplicity
 _atom_site_fract_x
 _atom_site_fract_y
 _atom_site_fract_z
 _atom_site_occupancy
  Au  Au0  1  0.00200451  0.33309200  0.54327255  1
  Au  Au1  1  0.99798151  0.66687607  0.54326505  1
  Au  Au2  1  0.99998519  0.99999001  0.54274490  1
  Au  Au3  1  0.33833300  0.33834403  0.54484682  1
  Au  Au4  1  0.33266762  0.66725431  0.54434016  1
  Au  Au5  1  0.33308750  0.00200618  0.54326993  1
  Au  Au6  1  0.66725251  0.33267723  0.54434033  1
  Au  Au7  1  0.66166733  0.66166664  0.54486469  1
  Au  Au8  1  0.66687247  0.99798949  0.54326273  1
  Au  Au9  1  0.16601156  0.16601254  0.62748508  1
  Au  Au10  1  0.16238457  0.49999850  0.62874916  1
  Au  Au11  1  0.16634151  0.83360456  0.62799901  1
  Au  Au12  1  0.49999156  0.16237977  0.62874640  1
  Au  Au13  1  0.49978121  0.49978479  0.63403609  1
  Au  Au14  1  0.49993321  0.83739030  0.62872508  1
  Au  Au15  1  0.83360073  0.16635247  0.62799927  1
  Au  Au16  1  0.83737085  0.49994090  0.62872825  1
  Au  Au17  1  0.83396901  0.83398297  0.62749597  1
  Au  Au18  1  0.16666600  0.16666800  0.45833300  1
  Au  Au19  1  0.16666600  0.50000100  0.45833300  1
  Au  Au20  1  0.16666600  0.83333400  0.45833300  1
  Au  Au21  1  0.50000000  0.16666800  0.45833300  1
  Au  Au22  1  0.50000000  0.50000100  0.45833300  1
  Au  Au23  1  0.50000000  0.83333400  0.45833300  1
  Au  Au24  1  0.83333300  0.16666800  0.45833300  1
  Au  Au25  1  0.83333300  0.50000100  0.45833300  1
  Au  Au26  1  0.83333300  0.83333400  0.45833300  1
  O  O27  1  0.50007602  0.50010441  0.71328847  1
  H  H28  1  0.50026935  0.50027805  0.85413207  1
