# generated using pymatgen
data_Fe4Mo12H3S16N
_symmetry_space_group_name_H-M   'P 1'
_cell_length_a   6.48394610
_cell_length_b   6.41202525
_cell_length_c   27.90841600
_cell_angle_alpha   93.69337570
_cell_angle_beta   94.75362703
_cell_angle_gamma   97.43854579
_symmetry_Int_Tables_number   1
_chemical_formula_structural   Fe4Mo12H3S16N
_chemical_formula_sum   'Fe4 Mo12 H3 S16 N1'
_cell_volume   1143.25638445
_cell_formula_units_Z   1
loop_
 _symmetry_equiv_pos_site_id
 _symmetry_equiv_pos_as_xyz
  1  'x, y, z'
loop_
 _atom_site_type_symbol
 _atom_site_label
 _atom_site_symmetry_multiplicity
 _atom_site_fract_x
 _atom_site_fract_y
 _atom_site_fract_z
 _atom_site_occupancy
  Fe  Fe0  1  0.93409984  0.15347229  0.46532476  1
  Fe  Fe1  1  0.86567197  0.09626658  0.65425201  1
  Fe  Fe2  1  0.06524100  0.84263700  0.26375600  1
  Fe  Fe3  1  0.05843908  0.83380501  0.49671573  1
  Mo  Mo4  1  0.21960419  0.53844150  0.34340321  1
  Mo  Mo5  1  0.20742485  0.52931293  0.57611478  1
  Mo  Mo6  1  0.78073832  0.45940243  0.38750144  1
  Mo  Mo7  1  0.76891569  0.44479095  0.61756939  1
  Mo  Mo8  1  0.40694865  0.21715020  0.37475348  1
  Mo  Mo9  1  0.39478364  0.20363109  0.60684428  1
  Mo  Mo10  1  0.59252957  0.78218137  0.35578901  1
  Mo  Mo11  1  0.58094409  0.76708749  0.58773365  1
  Mo  Mo12  1  0.54135300  0.40905600  0.30082200  1
  Mo  Mo13  1  0.53062880  0.39988834  0.53162911  1
  Mo  Mo14  1  0.45570555  0.58980992  0.43071764  1
  Mo  Mo15  1  0.45171633  0.57003800  0.66233282  1
  S  S16  1  0.13062352  0.35822805  0.41688971  1
  S  S17  1  0.12294218  0.35417772  0.64920393  1
  S  S18  1  0.86842500  0.63937200  0.31349000  1
  S  S19  1  0.85796540  0.63250651  0.54538160  1
  S  S20  1  0.72301900  0.14241800  0.33608800  1
  S  S21  1  0.70909174  0.12339664  0.56451366  1
  S  S22  1  0.27596837  0.85671278  0.39488644  1
  S  S23  1  0.27311606  0.84488737  0.62976519  1
  S  S24  1  0.38478400  0.73178900  0.28021200  1
  S  S25  1  0.37378857  0.72100196  0.51206875  1
  S  S26  1  0.61395028  0.26653249  0.45073371  1
  S  S27  1  0.60763449  0.25902306  0.68472426  1
  S  S28  1  0.20162900  0.19284800  0.29629700  1
  S  S29  1  0.18947671  0.18627360  0.52732986  1
  S  S30  1  0.79694672  0.80501606  0.43558169  1
  S  S31  1  0.79806459  0.76345591  0.66967985  1
  N  N32  1  0.42657612  0.62499010  0.74225031  1
  H  H33  1  0.57261250  0.66397534  0.76053573  1
  H  H34  1  0.33888179  0.73960897  0.75285692  1
  H  H35  1  0.36274611  0.48757860  0.75569668  1
