# generated using pymatgen
data_HAu27
_symmetry_space_group_name_H-M   'P 1'
_cell_length_a   8.57745306
_cell_length_b   8.57952124
_cell_length_c   25.48431000
_cell_angle_alpha   89.99453055
_cell_angle_beta   89.99330683
_cell_angle_gamma   96.00496057
_symmetry_Int_Tables_number   1
_chemical_formula_structural   HAu27
_chemical_formula_sum   'H1 Au27'
_cell_volume   1865.11095498
_cell_formula_units_Z   1
loop_
 _symmetry_equiv_pos_site_id
 _symmetry_equiv_pos_as_xyz
  1  'x, y, z'
loop_
 _atom_site_type_symbol
 _atom_site_label
 _atom_site_symmetry_multiplicity
 _atom_site_fract_x
 _atom_site_fract_y
 _atom_site_fract_z
 _atom_site_occupancy
  Au  Au0  1  0.00203299  0.33130861  0.54406007  1
  Au  Au1  1  0.99895234  0.66429880  0.54397815  1
  Au  Au2  1  0.99632130  0.99632059  0.54476251  1
  Au  Au3  1  0.33706057  0.33706630  0.54478398  1
  Au  Au4  1  0.33440819  0.66901349  0.54396775  1
  Au  Au5  1  0.33130542  0.00203802  0.54405905  1
  Au  Au6  1  0.66900786  0.33441510  0.54396628  1
  Au  Au7  1  0.66661733  0.66662234  0.54017660  1
  Au  Au8  1  0.66430108  0.99895469  0.54397627  1
  Au  Au9  1  0.16658270  0.16658733  0.62915617  1
  Au  Au10  1  0.17339536  0.50003972  0.62906103  1
  Au  Au11  1  0.15992417  0.83326421  0.62906967  1
  Au  Au12  1  0.50004004  0.17339920  0.62906047  1
  Au  Au13  1  0.50878328  0.50879514  0.63119859  1
  Au  Au14  1  0.48962066  0.84357511  0.63066235  1
  Au  Au15  1  0.83325415  0.15993741  0.62906945  1
  Au  Au16  1  0.84354999  0.48961801  0.63066557  1
  Au  Au17  1  0.82457530  0.82458918  0.63111936  1
  Au  Au18  1  0.16666600  0.16666800  0.45833300  1
  Au  Au19  1  0.16666600  0.50000100  0.45833300  1
  Au  Au20  1  0.16666600  0.83333400  0.45833300  1
  Au  Au21  1  0.50000000  0.16666800  0.45833300  1
  Au  Au22  1  0.50000000  0.50000100  0.45833300  1
  Au  Au23  1  0.50000000  0.83333400  0.45833300  1
  Au  Au24  1  0.83333300  0.16666800  0.45833300  1
  Au  Au25  1  0.83333300  0.50000100  0.45833300  1
  Au  Au26  1  0.83333300  0.83333400  0.45833300  1
  H  H27  1  0.66669135  0.66663038  0.65226799  1
