# generated using pymatgen
data_Sn36CO2
_symmetry_space_group_name_H-M   'P 1'
_cell_length_a   9.43221838
_cell_length_b   11.60326658
_cell_length_c   30.60418900
_cell_angle_alpha   90.03914768
_cell_angle_beta   90.23654075
_cell_angle_gamma   88.57775690
_symmetry_Int_Tables_number   1
_chemical_formula_structural   Sn36CO2
_chemical_formula_sum   'Sn36 C1 O2'
_cell_volume   3348.40054919
_cell_formula_units_Z   1
loop_
 _symmetry_equiv_pos_site_id
 _symmetry_equiv_pos_as_xyz
  1  'x, y, z'
loop_
 _atom_site_type_symbol
 _atom_site_label
 _atom_site_symmetry_multiplicity
 _atom_site_fract_x
 _atom_site_fract_y
 _atom_site_fract_z
 _atom_site_occupancy
  Sn  Sn0  1  0.21952477  0.31167447  0.55019881  1
  Sn  Sn1  1  0.21875151  0.81140567  0.55022175  1
  Sn  Sn2  1  0.55041778  0.31057158  0.53729856  1
  Sn  Sn3  1  0.55154007  0.81142048  0.54876176  1
  Sn  Sn4  1  0.88260459  0.31183832  0.55061754  1
  Sn  Sn5  1  0.88471201  0.81168381  0.55085957  1
  Sn  Sn6  1  0.02958694  0.06119033  0.54970812  1
  Sn  Sn7  1  0.02929451  0.56021981  0.54997701  1
  Sn  Sn8  1  0.36325755  0.06021522  0.54959653  1
  Sn  Sn9  1  0.36322664  0.56012924  0.54939169  1
  Sn  Sn10  1  0.69646300  0.05936776  0.54857393  1
  Sn  Sn11  1  0.69617686  0.56091186  0.54877557  1
  Sn  Sn12  1  0.23308710  0.31477405  0.45059043  1
  Sn  Sn13  1  0.23397025  0.81440824  0.45038975  1
  Sn  Sn14  1  0.57003211  0.31598078  0.44310954  1
  Sn  Sn15  1  0.56677089  0.81517299  0.44896102  1
  Sn  Sn16  1  0.90192477  0.31385486  0.45095287  1
  Sn  Sn17  1  0.89997464  0.81395920  0.45065406  1
  Sn  Sn18  1  0.01924643  0.06170057  0.44976075  1
  Sn  Sn19  1  0.01840105  0.56357728  0.44982728  1
  Sn  Sn20  1  0.35169902  0.06353431  0.44952826  1
  Sn  Sn21  1  0.35165552  0.56352846  0.44950137  1
  Sn  Sn22  1  0.68572191  0.06267687  0.44960390  1
  Sn  Sn23  1  0.68562662  0.56488970  0.44979033  1
  Sn  Sn24  1  0.21579100  0.31083800  0.34996900  1
  Sn  Sn25  1  0.21579100  0.81083800  0.34996900  1
  Sn  Sn26  1  0.54912400  0.31083800  0.34996900  1
  Sn  Sn27  1  0.54912400  0.81083800  0.34996900  1
  Sn  Sn28  1  0.88245700  0.31083800  0.34996900  1
  Sn  Sn29  1  0.88245700  0.81083800  0.34996900  1
  Sn  Sn30  1  0.03172900  0.06063000  0.35002900  1
  Sn  Sn31  1  0.03172900  0.56063000  0.35002900  1
  Sn  Sn32  1  0.36506200  0.06063000  0.35002900  1
  Sn  Sn33  1  0.36506200  0.56063000  0.35002900  1
  Sn  Sn34  1  0.69839600  0.06063000  0.35002900  1
  Sn  Sn35  1  0.69839600  0.56063000  0.35002900  1
  C  C36  1  0.54870584  0.31125692  0.64135355  1
  O  O37  1  0.54532163  0.41253370  0.64106501  1
  O  O38  1  0.55212658  0.21035300  0.64056947  1
