# generated using pymatgen
data_HPd27O
_symmetry_space_group_name_H-M   'P 1'
_cell_length_a   8.25699600
_cell_length_b   8.25682200
_cell_length_c   23.35403400
_cell_angle_alpha   89.99925057
_cell_angle_beta   89.99908404
_cell_angle_gamma   89.99983345
_symmetry_Int_Tables_number   1
_chemical_formula_structural   HPd27O
_chemical_formula_sum   'Pd27 H1 O1'
_cell_volume   1592.19737858
_cell_formula_units_Z   1
loop_
 _symmetry_equiv_pos_site_id
 _symmetry_equiv_pos_as_xyz
  1  'x, y, z'
loop_
 _atom_site_type_symbol
 _atom_site_label
 _atom_site_symmetry_multiplicity
 _atom_site_fract_x
 _atom_site_fract_y
 _atom_site_fract_z
 _atom_site_occupancy
  Pd  Pd0  1  0.00000100  0.33333500  0.45838000  1
  Pd  Pd1  1  0.00000100  0.66666800  0.45838000  1
  Pd  Pd2  1  0.00000100  0.00000100  0.45838000  1
  Pd  Pd3  1  0.33333400  0.33333500  0.45838000  1
  Pd  Pd4  1  0.33333400  0.66666800  0.45838000  1
  Pd  Pd5  1  0.33333400  0.00000100  0.45838000  1
  Pd  Pd6  1  0.66666700  0.33333500  0.45838000  1
  Pd  Pd7  1  0.66666700  0.66666800  0.45838000  1
  Pd  Pd8  1  0.66666700  0.00000100  0.45838000  1
  Pd  Pd9  1  0.16666300  0.16666600  0.37499900  1
  Pd  Pd10  1  0.16666300  0.50000000  0.37499900  1
  Pd  Pd11  1  0.16666300  0.83333300  0.37499900  1
  Pd  Pd12  1  0.49999600  0.16666600  0.37499900  1
  Pd  Pd13  1  0.49999600  0.50000000  0.37499900  1
  Pd  Pd14  1  0.49999600  0.83333300  0.37499900  1
  Pd  Pd15  1  0.83333000  0.16666600  0.37499900  1
  Pd  Pd16  1  0.83333000  0.50000000  0.37499900  1
  Pd  Pd17  1  0.83333000  0.83333300  0.37499900  1
  Pd  Pd18  1  0.16613688  0.16613775  0.54205481  1
  Pd  Pd19  1  0.16507343  0.49999373  0.54232732  1
  Pd  Pd20  1  0.16613689  0.83384940  0.54205522  1
  Pd  Pd21  1  0.49999283  0.16507426  0.54232720  1
  Pd  Pd22  1  0.49999716  0.49999668  0.54151516  1
  Pd  Pd23  1  0.49999330  0.83491588  0.54232932  1
  Pd  Pd24  1  0.83384868  0.16613787  0.54205491  1
  Pd  Pd25  1  0.83491527  0.49999426  0.54232907  1
  Pd  Pd26  1  0.83384918  0.83384990  0.54205541  1
  O  O27  1  0.49997827  0.49998669  0.62377611  1
  H  H28  1  0.50000120  0.49999774  0.66612669  1
