# generated using pymatgen
data_Fe4Mo12H3S16N
_symmetry_space_group_name_H-M   'P 1'
_cell_length_a   6.48394610
_cell_length_b   6.41202525
_cell_length_c   27.90841600
_cell_angle_alpha   93.69337570
_cell_angle_beta   94.75362703
_cell_angle_gamma   97.43854579
_symmetry_Int_Tables_number   1
_chemical_formula_structural   Fe4Mo12H3S16N
_chemical_formula_sum   'Fe4 Mo12 H3 S16 N1'
_cell_volume   1143.25638445
_cell_formula_units_Z   1
loop_
 _symmetry_equiv_pos_site_id
 _symmetry_equiv_pos_as_xyz
  1  'x, y, z'
loop_
 _atom_site_type_symbol
 _atom_site_label
 _atom_site_symmetry_multiplicity
 _atom_site_fract_x
 _atom_site_fract_y
 _atom_site_fract_z
 _atom_site_occupancy
  Fe  Fe0  1  0.91540273  0.15160258  0.45626374  1
  Fe  Fe1  1  0.83964265  0.11577305  0.68439739  1
  Fe  Fe2  1  0.06524100  0.84263700  0.26375600  1
  Fe  Fe3  1  0.02515897  0.82764166  0.50552030  1
  Mo  Mo4  1  0.21900659  0.53968033  0.34284966  1
  Mo  Mo5  1  0.15625193  0.51777322  0.57403011  1
  Mo  Mo6  1  0.78025465  0.45997755  0.38756947  1
  Mo  Mo7  1  0.71582421  0.42934493  0.61800010  1
  Mo  Mo8  1  0.40627425  0.21792140  0.37453154  1
  Mo  Mo9  1  0.34235795  0.19395806  0.60530827  1
  Mo  Mo10  1  0.59185448  0.78126590  0.35594590  1
  Mo  Mo11  1  0.53171127  0.75630212  0.58700960  1
  Mo  Mo12  1  0.54135300  0.40905600  0.30082200  1
  Mo  Mo13  1  0.48882411  0.38577230  0.52987924  1
  Mo  Mo14  1  0.44775707  0.59093258  0.43142123  1
  Mo  Mo15  1  0.39409985  0.56308469  0.65918511  1
  S  S16  1  0.12769509  0.35700030  0.41463416  1
  S  S17  1  0.06747782  0.33563816  0.64731573  1
  S  S18  1  0.86842500  0.63937200  0.31349000  1
  S  S19  1  0.80978498  0.62023623  0.54693109  1
  S  S20  1  0.72301900  0.14241800  0.33608800  1
  S  S21  1  0.65772473  0.11455114  0.56596422  1
  S  S22  1  0.27646838  0.85791812  0.39437327  1
  S  S23  1  0.21637660  0.83501563  0.62757351  1
  S  S24  1  0.38478400  0.73178900  0.28021200  1
  S  S25  1  0.33142654  0.70746160  0.51002763  1
  S  S26  1  0.60698817  0.27004865  0.45144850  1
  S  S27  1  0.53945195  0.25380799  0.68336754  1
  S  S28  1  0.20162900  0.19284800  0.29629700  1
  S  S29  1  0.14129636  0.18106015  0.52352952  1
  S  S30  1  0.79621836  0.79757413  0.43787578  1
  S  S31  1  0.73737880  0.76515594  0.66648592  1
  N  N32  1  0.94097357  0.12871186  0.75653054  1
  H  H33  1  0.09951664  0.13605702  0.76452085  1
  H  H34  1  0.89633980  0.25716814  0.77513474  1
  H  H35  1  0.87341918  0.99748786  0.77187229  1
