# generated using pymatgen
data_HPtAu26O
_symmetry_space_group_name_H-M   'P 1'
_cell_length_a   8.57606266
_cell_length_b   8.57606266
_cell_length_c   23.65109797
_cell_angle_alpha   88.12641697
_cell_angle_beta   88.12641697
_cell_angle_gamma   63.40130658
_symmetry_Int_Tables_number   1
_chemical_formula_structural   HPtAu26O
_chemical_formula_sum   'H1 Pt1 Au26 O1'
_cell_volume   1554.26011481
_cell_formula_units_Z   1
loop_
 _symmetry_equiv_pos_site_id
 _symmetry_equiv_pos_as_xyz
  1  'x, y, z'
loop_
 _atom_site_type_symbol
 _atom_site_label
 _atom_site_symmetry_multiplicity
 _atom_site_fract_x
 _atom_site_fract_y
 _atom_site_fract_z
 _atom_site_occupancy
  Au  Au0  1  0.20164858  0.20164805  0.60612250  1
  Au  Au1  1  0.19878403  0.53527635  0.60511091  1
  Au  Au2  1  0.20010559  0.86954279  0.60564603  1
  Au  Au3  1  0.53527692  0.19878325  0.60511089  1
  Au  Au4  1  0.53352845  0.86810214  0.60622421  1
  Au  Au5  1  0.86954334  0.20010496  0.60564596  1
  Au  Au6  1  0.86810282  0.53352796  0.60622425  1
  Au  Au7  1  0.86742949  0.86742887  0.60550883  1
  Au  Au8  1  0.99886937  0.33285942  0.50334796  1
  Au  Au9  1  0.99911300  0.66723742  0.50274649  1
  Au  Au10  1  0.99953519  0.99953472  0.50296879  1
  Au  Au11  1  0.33138089  0.33138053  0.50320331  1
  Au  Au12  1  0.33649478  0.66242500  0.50418708  1
  Au  Au13  1  0.33285977  0.99886909  0.50334795  1
  Au  Au14  1  0.66242531  0.33649438  0.50418701  1
  Au  Au15  1  0.66535017  0.66534975  0.50457910  1
  Au  Au16  1  0.66723787  0.99911257  0.50274647  1
  Au  Au17  1  0.13333300  0.13333300  0.40000000  1
  Au  Au18  1  0.13333300  0.46666600  0.40000000  1
  Au  Au19  1  0.13333300  0.80000000  0.40000000  1
  Au  Au20  1  0.46666600  0.13333300  0.40000000  1
  Au  Au21  1  0.46666700  0.46666700  0.40000000  1
  Au  Au22  1  0.46666700  0.80000000  0.40000000  1
  Au  Au23  1  0.80000000  0.13333300  0.40000000  1
  Au  Au24  1  0.80000000  0.46666700  0.40000000  1
  Au  Au25  1  0.80000000  0.80000000  0.40000000  1
  Pt  Pt26  1  0.53357857  0.53357755  0.60314305  1
  O  O27  1  0.52434459  0.52434276  0.69123055  1
  H  H28  1  0.58841222  0.58842699  0.70247702  1
