# generated using pymatgen
data_HPtAu26O
_symmetry_space_group_name_H-M   'P 1'
_cell_length_a   8.57606266
_cell_length_b   8.57606266
_cell_length_c   23.65109797
_cell_angle_alpha   88.12641697
_cell_angle_beta   88.12641697
_cell_angle_gamma   63.40130658
_symmetry_Int_Tables_number   1
_chemical_formula_structural   HPtAu26O
_chemical_formula_sum   'H1 Pt1 Au26 O1'
_cell_volume   1554.26011481
_cell_formula_units_Z   1
loop_
 _symmetry_equiv_pos_site_id
 _symmetry_equiv_pos_as_xyz
  1  'x, y, z'
loop_
 _atom_site_type_symbol
 _atom_site_label
 _atom_site_symmetry_multiplicity
 _atom_site_fract_x
 _atom_site_fract_y
 _atom_site_fract_z
 _atom_site_occupancy
  Au  Au0  1  0.20234603  0.20566657  0.60132982  1
  Au  Au1  1  0.15385027  0.56402302  0.60061718  1
  Au  Au2  1  0.19679842  0.87815323  0.60272735  1
  Au  Au3  1  0.54329979  0.19575283  0.60426496  1
  Au  Au4  1  0.52583897  0.87447858  0.60528115  1
  Au  Au5  1  0.86600389  0.21385135  0.60381031  1
  Au  Au6  1  0.83675448  0.55122205  0.60414916  1
  Au  Au7  1  0.85561134  0.88600104  0.60390376  1
  Au  Au8  1  0.99879423  0.34008249  0.50228161  1
  Au  Au9  1  0.99511227  0.67307231  0.50056302  1
  Au  Au10  1  0.99829805  0.00661879  0.50206841  1
  Au  Au11  1  0.33294774  0.33822845  0.50392610  1
  Au  Au12  1  0.32915360  0.67199085  0.50093367  1
  Au  Au13  1  0.33315875  0.00550793  0.50088872  1
  Au  Au14  1  0.66394218  0.34027294  0.50253144  1
  Au  Au15  1  0.65726627  0.67174826  0.50278521  1
  Au  Au16  1  0.66359637  0.00775704  0.50131759  1
  Au  Au17  1  0.13333300  0.13333300  0.40000000  1
  Au  Au18  1  0.13333300  0.46666600  0.40000000  1
  Au  Au19  1  0.13333300  0.80000000  0.40000000  1
  Au  Au20  1  0.46666600  0.13333300  0.40000000  1
  Au  Au21  1  0.46666700  0.46666700  0.40000000  1
  Au  Au22  1  0.46666700  0.80000000  0.40000000  1
  Au  Au23  1  0.80000000  0.13333300  0.40000000  1
  Au  Au24  1  0.80000000  0.46666700  0.40000000  1
  Au  Au25  1  0.80000000  0.80000000  0.40000000  1
  Pt  Pt26  1  0.51472174  0.54571478  0.60056551  1
  O  O27  1  0.34804406  0.46072945  0.66404327  1
  H  H28  1  0.29914157  0.50602266  0.70126913  1
