# generated using pymatgen
data_HPtAu26O
_symmetry_space_group_name_H-M   'P 1'
_cell_length_a   8.57606266
_cell_length_b   8.57606266
_cell_length_c   23.65109797
_cell_angle_alpha   88.12641697
_cell_angle_beta   88.12641697
_cell_angle_gamma   63.40130658
_symmetry_Int_Tables_number   1
_chemical_formula_structural   HPtAu26O
_chemical_formula_sum   'H1 Pt1 Au26 O1'
_cell_volume   1554.26011481
_cell_formula_units_Z   1
loop_
 _symmetry_equiv_pos_site_id
 _symmetry_equiv_pos_as_xyz
  1  'x, y, z'
loop_
 _atom_site_type_symbol
 _atom_site_label
 _atom_site_symmetry_multiplicity
 _atom_site_fract_x
 _atom_site_fract_y
 _atom_site_fract_z
 _atom_site_occupancy
  Au  Au0  1  0.20168136  0.20168084  0.60615340  1
  Au  Au1  1  0.19856517  0.53538938  0.60512490  1
  Au  Au2  1  0.20010849  0.86954626  0.60567390  1
  Au  Au3  1  0.53538997  0.19856428  0.60512489  1
  Au  Au4  1  0.53350420  0.86806316  0.60627176  1
  Au  Au5  1  0.86954687  0.20010783  0.60567381  1
  Au  Au6  1  0.86806390  0.53350373  0.60627182  1
  Au  Au7  1  0.86746880  0.86746816  0.60554171  1
  Au  Au8  1  0.99886347  0.33294880  0.50339843  1
  Au  Au9  1  0.99910775  0.66726628  0.50277376  1
  Au  Au10  1  0.99957674  0.99957634  0.50304308  1
  Au  Au11  1  0.33145554  0.33145521  0.50321313  1
  Au  Au12  1  0.33655896  0.66234641  0.50420693  1
  Au  Au13  1  0.33294915  0.99886315  0.50339842  1
  Au  Au14  1  0.66234676  0.33655857  0.50420683  1
  Au  Au15  1  0.66531455  0.66531410  0.50458140  1
  Au  Au16  1  0.66726672  0.99910735  0.50277374  1
  Au  Au17  1  0.13333300  0.13333300  0.40000000  1
  Au  Au18  1  0.13333300  0.46666600  0.40000000  1
  Au  Au19  1  0.13333300  0.80000000  0.40000000  1
  Au  Au20  1  0.46666600  0.13333300  0.40000000  1
  Au  Au21  1  0.46666700  0.46666700  0.40000000  1
  Au  Au22  1  0.46666700  0.80000000  0.40000000  1
  Au  Au23  1  0.80000000  0.13333300  0.40000000  1
  Au  Au24  1  0.80000000  0.46666700  0.40000000  1
  Au  Au25  1  0.80000000  0.80000000  0.40000000  1
  Pt  Pt26  1  0.53355497  0.53355400  0.60340844  1
  O  O27  1  0.52407611  0.52407422  0.69100722  1
  H  H28  1  0.58814782  0.58816253  0.70243838  1
