# generated using pymatgen
data_HAu27O
_symmetry_space_group_name_H-M   'P 1'
_cell_length_a   8.57745306
_cell_length_b   8.57952124
_cell_length_c   25.48431000
_cell_angle_alpha   89.99453055
_cell_angle_beta   89.99330683
_cell_angle_gamma   96.00496057
_symmetry_Int_Tables_number   1
_chemical_formula_structural   HAu27O
_chemical_formula_sum   'H1 Au27 O1'
_cell_volume   1865.11095498
_cell_formula_units_Z   1
loop_
 _symmetry_equiv_pos_site_id
 _symmetry_equiv_pos_as_xyz
  1  'x, y, z'
loop_
 _atom_site_type_symbol
 _atom_site_label
 _atom_site_symmetry_multiplicity
 _atom_site_fract_x
 _atom_site_fract_y
 _atom_site_fract_z
 _atom_site_occupancy
  Au  Au0  1  0.99946567  0.33310188  0.54381770  1
  Au  Au1  1  0.00049398  0.66681460  0.54382002  1
  Au  Au2  1  0.99996424  0.99996942  0.54394591  1
  Au  Au3  1  0.33224980  0.33225240  0.54355741  1
  Au  Au4  1  0.33342750  0.66654989  0.54383075  1
  Au  Au5  1  0.33309717  0.99947009  0.54381698  1
  Au  Au6  1  0.66654466  0.33343265  0.54383072  1
  Au  Au7  1  0.66774458  0.66775258  0.54354587  1
  Au  Au8  1  0.66680994  0.00050027  0.54381930  1
  Au  Au9  1  0.16643246  0.16643723  0.62924634  1
  Au  Au10  1  0.16592378  0.49978082  0.62894569  1
  Au  Au11  1  0.16654257  0.83331058  0.62922756  1
  Au  Au12  1  0.49977573  0.16593102  0.62894569  1
  Au  Au13  1  0.50002095  0.50003284  0.62685574  1
  Au  Au14  1  0.50008366  0.83401613  0.62894284  1
  Au  Au15  1  0.83330460  0.16655321  0.62922789  1
  Au  Au16  1  0.83400239  0.50009501  0.62894285  1
  Au  Au17  1  0.83341790  0.83343063  0.62925186  1
  Au  Au18  1  0.16666600  0.16666800  0.45833300  1
  Au  Au19  1  0.16666600  0.50000100  0.45833300  1
  Au  Au20  1  0.16666600  0.83333400  0.45833300  1
  Au  Au21  1  0.50000000  0.16666800  0.45833300  1
  Au  Au22  1  0.50000000  0.50000100  0.45833300  1
  Au  Au23  1  0.50000000  0.83333400  0.45833300  1
  Au  Au24  1  0.83333300  0.16666800  0.45833300  1
  Au  Au25  1  0.83333300  0.50000100  0.45833300  1
  Au  Au26  1  0.83333300  0.83333400  0.45833300  1
  O  O27  1  0.50027166  0.50027537  0.75822880  1
  H  H28  1  0.50024428  0.50025021  0.79768933  1
