# generated using pymatgen
data_PtAu26O
_symmetry_space_group_name_H-M   'P 1'
_cell_length_a   8.57606266
_cell_length_b   8.57606266
_cell_length_c   23.65109797
_cell_angle_alpha   88.12641697
_cell_angle_beta   88.12641697
_cell_angle_gamma   63.40130658
_symmetry_Int_Tables_number   1
_chemical_formula_structural   PtAu26O
_chemical_formula_sum   'Pt1 Au26 O1'
_cell_volume   1554.26011481
_cell_formula_units_Z   1
loop_
 _symmetry_equiv_pos_site_id
 _symmetry_equiv_pos_as_xyz
  1  'x, y, z'
loop_
 _atom_site_type_symbol
 _atom_site_label
 _atom_site_symmetry_multiplicity
 _atom_site_fract_x
 _atom_site_fract_y
 _atom_site_fract_z
 _atom_site_occupancy
  Au  Au0  1  0.20700971  0.19340885  0.60524863  1
  Au  Au1  1  0.20757352  0.52988800  0.61001175  1
  Au  Au2  1  0.20663488  0.86599178  0.60559690  1
  Au  Au3  1  0.54178482  0.20147895  0.60498234  1
  Au  Au4  1  0.53710003  0.86671944  0.60563350  1
  Au  Au5  1  0.86750099  0.21139874  0.60653793  1
  Au  Au6  1  0.86416478  0.54237651  0.60542411  1
  Au  Au7  1  0.86452459  0.88036050  0.60513078  1
  Au  Au8  1  0.00106040  0.33192775  0.50381625  1
  Au  Au9  1  0.00421391  0.66311209  0.50601074  1
  Au  Au10  1  0.00034440  0.99928534  0.50439816  1
  Au  Au11  1  0.32855198  0.33998555  0.50544361  1
  Au  Au12  1  0.33087053  0.66983300  0.50324954  1
  Au  Au13  1  0.33449836  0.00273903  0.50227611  1
  Au  Au14  1  0.66802319  0.33092247  0.50135446  1
  Au  Au15  1  0.66777748  0.66778634  0.50196749  1
  Au  Au16  1  0.66665598  0.99953482  0.50255063  1
  Au  Au17  1  0.13333300  0.13333300  0.40000000  1
  Au  Au18  1  0.13333300  0.46666600  0.40000000  1
  Au  Au19  1  0.13333300  0.80000000  0.40000000  1
  Au  Au20  1  0.46666600  0.13333300  0.40000000  1
  Au  Au21  1  0.46666700  0.46666700  0.40000000  1
  Au  Au22  1  0.46666700  0.80000000  0.40000000  1
  Au  Au23  1  0.80000000  0.13333300  0.40000000  1
  Au  Au24  1  0.80000000  0.46666700  0.40000000  1
  Au  Au25  1  0.80000000  0.80000000  0.40000000  1
  Pt  Pt26  1  0.54477672  0.53387599  0.59644019  1
  O  O27  1  0.19824964  0.53173006  0.69592555  1
