# generated using pymatgen
data_HPt(Au13O)2
_symmetry_space_group_name_H-M   'P 1'
_cell_length_a   8.57606266
_cell_length_b   8.57606266
_cell_length_c   23.65109797
_cell_angle_alpha   88.12641697
_cell_angle_beta   88.12641697
_cell_angle_gamma   63.40130658
_symmetry_Int_Tables_number   1
_chemical_formula_structural   HPt(Au13O)2
_chemical_formula_sum   'H1 Pt1 Au26 O2'
_cell_volume   1554.26011481
_cell_formula_units_Z   1
loop_
 _symmetry_equiv_pos_site_id
 _symmetry_equiv_pos_as_xyz
  1  'x, y, z'
loop_
 _atom_site_type_symbol
 _atom_site_label
 _atom_site_symmetry_multiplicity
 _atom_site_fract_x
 _atom_site_fract_y
 _atom_site_fract_z
 _atom_site_occupancy
  Au  Au0  1  0.21400331  0.21252433  0.60584594  1
  Au  Au1  1  0.19511590  0.55073550  0.60418738  1
  Au  Au2  1  0.20814772  0.87471311  0.60848021  1
  Au  Au3  1  0.55801583  0.19160478  0.61278393  1
  Au  Au4  1  0.53560202  0.88243232  0.60393517  1
  Au  Au5  1  0.89655396  0.19112801  0.60424572  1
  Au  Au6  1  0.87343421  0.53451948  0.60513994  1
  Au  Au7  1  0.87601048  0.86697685  0.60658757  1
  Au  Au8  1  0.00278664  0.33625087  0.50255184  1
  Au  Au9  1  0.99918881  0.67057853  0.50147594  1
  Au  Au10  1  0.99942839  0.00172146  0.50242273  1
  Au  Au11  1  0.33791141  0.33750370  0.50498066  1
  Au  Au12  1  0.33378882  0.67339063  0.50376005  1
  Au  Au13  1  0.33089857  0.00753276  0.50237776  1
  Au  Au14  1  0.66781681  0.33937485  0.50651258  1
  Au  Au15  1  0.66378200  0.67289833  0.50349790  1
  Au  Au16  1  0.66341868  0.01062278  0.50505220  1
  Au  Au17  1  0.13333300  0.13333300  0.40000000  1
  Au  Au18  1  0.13333300  0.46666600  0.40000000  1
  Au  Au19  1  0.13333300  0.80000000  0.40000000  1
  Au  Au20  1  0.46666600  0.13333300  0.40000000  1
  Au  Au21  1  0.46666700  0.46666700  0.40000000  1
  Au  Au22  1  0.46666700  0.80000000  0.40000000  1
  Au  Au23  1  0.80000000  0.13333300  0.40000000  1
  Au  Au24  1  0.80000000  0.46666700  0.40000000  1
  Au  Au25  1  0.80000000  0.80000000  0.40000000  1
  Pt  Pt26  1  0.53496761  0.56101115  0.60296458  1
  O  O27  1  0.55943002  0.39574016  0.66516741  1
  O  O28  1  0.45290401  0.69718618  0.76379053  1
  H  H29  1  0.46424569  0.67485382  0.72324360  1
