# generated using pymatgen
data_Fe4Mo12H3S16N
_symmetry_space_group_name_H-M   'P 1'
_cell_length_a   6.48394610
_cell_length_b   6.41202525
_cell_length_c   27.90841600
_cell_angle_alpha   93.69337570
_cell_angle_beta   94.75362703
_cell_angle_gamma   97.43854579
_symmetry_Int_Tables_number   1
_chemical_formula_structural   Fe4Mo12H3S16N
_chemical_formula_sum   'Fe4 Mo12 H3 S16 N1'
_cell_volume   1143.25638445
_cell_formula_units_Z   1
loop_
 _symmetry_equiv_pos_site_id
 _symmetry_equiv_pos_as_xyz
  1  'x, y, z'
loop_
 _atom_site_type_symbol
 _atom_site_label
 _atom_site_symmetry_multiplicity
 _atom_site_fract_x
 _atom_site_fract_y
 _atom_site_fract_z
 _atom_site_occupancy
  Fe  Fe0  1  0.93427613  0.15221736  0.46783909  1
  Fe  Fe1  1  0.86811396  0.09565950  0.65508299  1
  Fe  Fe2  1  0.06524100  0.84263700  0.26375600  1
  Fe  Fe3  1  0.06299442  0.83297528  0.49432205  1
  Mo  Mo4  1  0.22154896  0.53747739  0.34396994  1
  Mo  Mo5  1  0.21361479  0.52818430  0.57649531  1
  Mo  Mo6  1  0.77901331  0.45941166  0.38751253  1
  Mo  Mo7  1  0.77493250  0.44489037  0.61780556  1
  Mo  Mo8  1  0.40673300  0.21647750  0.37493599  1
  Mo  Mo9  1  0.40091881  0.20348079  0.60727072  1
  Mo  Mo10  1  0.59230982  0.78176321  0.35585740  1
  Mo  Mo11  1  0.58690042  0.76652541  0.58796584  1
  Mo  Mo12  1  0.54135300  0.40905600  0.30082200  1
  Mo  Mo13  1  0.53603519  0.39942167  0.53207719  1
  Mo  Mo14  1  0.45562635  0.58826381  0.43097093  1
  Mo  Mo15  1  0.45722141  0.57017247  0.66239610  1
  S  S16  1  0.12974705  0.35652873  0.41751694  1
  S  S17  1  0.12857716  0.35190182  0.64964268  1
  S  S18  1  0.86842500  0.63937200  0.31349000  1
  S  S19  1  0.86420834  0.63282957  0.54528930  1
  S  S20  1  0.72301900  0.14241800  0.33608800  1
  S  S21  1  0.71676565  0.12335720  0.56473202  1
  S  S22  1  0.27539739  0.85594396  0.39545358  1
  S  S23  1  0.27834068  0.84441115  0.62984053  1
  S  S24  1  0.38478400  0.73178900  0.28021200  1
  S  S25  1  0.37811765  0.72047738  0.51262537  1
  S  S26  1  0.61468585  0.26571398  0.45081161  1
  S  S27  1  0.61326370  0.26037185  0.68553036  1
  S  S28  1  0.20162900  0.19284800  0.29629700  1
  S  S29  1  0.19668478  0.18339203  0.52806170  1
  S  S30  1  0.79363849  0.80540892  0.43552493  1
  S  S31  1  0.80467869  0.76277966  0.67034783  1
  N  N32  1  0.42918070  0.63076031  0.74235966  1
  H  H33  1  0.57474686  0.67079306  0.76076399  1
  H  H34  1  0.34096313  0.74617535  0.75209212  1
  H  H35  1  0.36447741  0.49430515  0.75600968  1
