# generated using pymatgen
data_Fe4Mo12HS16
_symmetry_space_group_name_H-M   'P 1'
_cell_length_a   6.48394610
_cell_length_b   6.41202525
_cell_length_c   27.90841600
_cell_angle_alpha   93.69337570
_cell_angle_beta   94.75362703
_cell_angle_gamma   97.43854579
_symmetry_Int_Tables_number   1
_chemical_formula_structural   Fe4Mo12HS16
_chemical_formula_sum   'Fe4 Mo12 H1 S16'
_cell_volume   1143.25638445
_cell_formula_units_Z   1
loop_
 _symmetry_equiv_pos_site_id
 _symmetry_equiv_pos_as_xyz
  1  'x, y, z'
loop_
 _atom_site_type_symbol
 _atom_site_label
 _atom_site_symmetry_multiplicity
 _atom_site_fract_x
 _atom_site_fract_y
 _atom_site_fract_z
 _atom_site_occupancy
  Fe  Fe0  1  0.93593728  0.16533909  0.46855123  1
  Fe  Fe1  1  0.84744055  0.13251658  0.65931836  1
  Fe  Fe2  1  0.06524100  0.84263700  0.26375600  1
  Fe  Fe3  1  0.06407772  0.84719283  0.49411175  1
  Mo  Mo4  1  0.21989167  0.53946683  0.34366451  1
  Mo  Mo5  1  0.21767145  0.54261936  0.57678059  1
  Mo  Mo6  1  0.78168779  0.46066054  0.38767458  1
  Mo  Mo7  1  0.78087139  0.46981967  0.61650059  1
  Mo  Mo8  1  0.40757547  0.21933999  0.37510093  1
  Mo  Mo9  1  0.40561581  0.22164114  0.60927169  1
  Mo  Mo10  1  0.59288813  0.78280258  0.35575271  1
  Mo  Mo11  1  0.58791798  0.78313499  0.58835190  1
  Mo  Mo12  1  0.54135300  0.40905600  0.30082200  1
  Mo  Mo13  1  0.53841056  0.41207702  0.53252758  1
  Mo  Mo14  1  0.45728919  0.59309456  0.43101913  1
  Mo  Mo15  1  0.45518354  0.58472982  0.66233286  1
  S  S16  1  0.13193142  0.36007138  0.41766026  1
  S  S17  1  0.12514876  0.36685907  0.65069991  1
  S  S18  1  0.86842500  0.63937200  0.31349000  1
  S  S19  1  0.86681091  0.64689381  0.54484435  1
  S  S20  1  0.72301900  0.14241800  0.33608800  1
  S  S21  1  0.71890348  0.14080220  0.56670540  1
  S  S22  1  0.27550992  0.85868132  0.39506959  1
  S  S23  1  0.27911785  0.86007901  0.63020243  1
  S  S24  1  0.38478400  0.73178900  0.28021200  1
  S  S25  1  0.38040448  0.73245634  0.51256382  1
  S  S26  1  0.61506296  0.27053082  0.45120244  1
  S  S27  1  0.59344132  0.27994258  0.69448301  1
  S  S28  1  0.20162900  0.19284800  0.29629700  1
  S  S29  1  0.20052388  0.19464922  0.52961093  1
  S  S30  1  0.79683439  0.81080032  0.43508125  1
  S  S31  1  0.79492795  0.78721709  0.67019142  1
  H  H32  1  0.46357677  0.14796512  0.71937685  1
