# generated using pymatgen
data_Fe4Mo12HS16
_symmetry_space_group_name_H-M   'P 1'
_cell_length_a   6.48394610
_cell_length_b   6.41202525
_cell_length_c   27.90841600
_cell_angle_alpha   93.69337570
_cell_angle_beta   94.75362703
_cell_angle_gamma   97.43854579
_symmetry_Int_Tables_number   1
_chemical_formula_structural   Fe4Mo12HS16
_chemical_formula_sum   'Fe4 Mo12 H1 S16'
_cell_volume   1143.25638445
_cell_formula_units_Z   1
loop_
 _symmetry_equiv_pos_site_id
 _symmetry_equiv_pos_as_xyz
  1  'x, y, z'
loop_
 _atom_site_type_symbol
 _atom_site_label
 _atom_site_symmetry_multiplicity
 _atom_site_fract_x
 _atom_site_fract_y
 _atom_site_fract_z
 _atom_site_occupancy
  Fe  Fe0  1  0.92170266  0.15373836  0.45938820  1
  Fe  Fe1  1  0.81275733  0.08467469  0.64472910  1
  Fe  Fe2  1  0.06524100  0.84263700  0.26375600  1
  Fe  Fe3  1  0.04466736  0.82816544  0.50262935  1
  Mo  Mo4  1  0.21997050  0.53966593  0.34322405  1
  Mo  Mo5  1  0.17760361  0.52092985  0.57466008  1
  Mo  Mo6  1  0.78313537  0.45991967  0.38754553  1
  Mo  Mo7  1  0.74476863  0.44233724  0.61707201  1
  Mo  Mo8  1  0.40790055  0.21824233  0.37469405  1
  Mo  Mo9  1  0.37126806  0.19327891  0.60571985  1
  Mo  Mo10  1  0.59349775  0.78116201  0.35591108  1
  Mo  Mo11  1  0.55420400  0.76516487  0.58686407  1
  Mo  Mo12  1  0.54135300  0.40905600  0.30082200  1
  Mo  Mo13  1  0.50955743  0.39344300  0.53023484  1
  Mo  Mo14  1  0.45297210  0.59174341  0.43147293  1
  Mo  Mo15  1  0.42227830  0.56373618  0.66093614  1
  S  S16  1  0.13059040  0.35755271  0.41569552  1
  S  S17  1  0.09420930  0.33893224  0.64726510  1
  S  S18  1  0.86842500  0.63937200  0.31349000  1
  S  S19  1  0.83230086  0.62920779  0.54578531  1
  S  S20  1  0.72301900  0.14241800  0.33608800  1
  S  S21  1  0.68658327  0.11682049  0.56368493  1
  S  S22  1  0.27810813  0.85815430  0.39461507  1
  S  S23  1  0.24417440  0.83659546  0.62864991  1
  S  S24  1  0.38478400  0.73178900  0.28021200  1
  S  S25  1  0.35213095  0.71226663  0.51070038  1
  S  S26  1  0.61167720  0.27058445  0.45117764  1
  S  S27  1  0.58183186  0.25766584  0.68421588  1
  S  S28  1  0.20162900  0.19284800  0.29629700  1
  S  S29  1  0.16519797  0.18043308  0.52437873  1
  S  S30  1  0.79925589  0.80229093  0.43755172  1
  S  S31  1  0.76693117  0.76231446  0.66901389  1
  H  H32  1  0.39268259  0.63290675  0.72124637  1
