# generated using pymatgen
data_Sn36CO
_symmetry_space_group_name_H-M   'P 1'
_cell_length_a   9.43221838
_cell_length_b   11.60326658
_cell_length_c   30.60418900
_cell_angle_alpha   90.03914768
_cell_angle_beta   90.23654075
_cell_angle_gamma   88.57775690
_symmetry_Int_Tables_number   1
_chemical_formula_structural   Sn36CO
_chemical_formula_sum   'Sn36 C1 O1'
_cell_volume   3348.40054919
_cell_formula_units_Z   1
loop_
 _symmetry_equiv_pos_site_id
 _symmetry_equiv_pos_as_xyz
  1  'x, y, z'
loop_
 _atom_site_type_symbol
 _atom_site_label
 _atom_site_symmetry_multiplicity
 _atom_site_fract_x
 _atom_site_fract_y
 _atom_site_fract_z
 _atom_site_occupancy
  Sn  Sn0  1  0.21518935  0.31201075  0.55073394  1
  Sn  Sn1  1  0.21775537  0.81179191  0.55083306  1
  Sn  Sn2  1  0.54899781  0.31065368  0.54194477  1
  Sn  Sn3  1  0.55082780  0.81136827  0.54924065  1
  Sn  Sn4  1  0.88245621  0.31151847  0.55172271  1
  Sn  Sn5  1  0.88427836  0.81090937  0.55125778  1
  Sn  Sn6  1  0.03109628  0.06085061  0.54883902  1
  Sn  Sn7  1  0.03100439  0.56043923  0.54891967  1
  Sn  Sn8  1  0.36370894  0.05999810  0.55057049  1
  Sn  Sn9  1  0.36358403  0.56137091  0.55095626  1
  Sn  Sn10  1  0.69881084  0.05882584  0.55141611  1
  Sn  Sn11  1  0.69824786  0.56125514  0.55143773  1
  Sn  Sn12  1  0.22931707  0.31378783  0.45112879  1
  Sn  Sn13  1  0.23290650  0.81339138  0.45049468  1
  Sn  Sn14  1  0.56561684  0.31576156  0.44245699  1
  Sn  Sn15  1  0.56585629  0.81463216  0.44911515  1
  Sn  Sn16  1  0.89620194  0.31409057  0.45247235  1
  Sn  Sn17  1  0.89994378  0.81504968  0.45111009  1
  Sn  Sn18  1  0.02265356  0.06360815  0.44869986  1
  Sn  Sn19  1  0.02069081  0.56158977  0.44869430  1
  Sn  Sn20  1  0.35530641  0.06159634  0.45018669  1
  Sn  Sn21  1  0.35461838  0.56244364  0.45052765  1
  Sn  Sn22  1  0.68862321  0.06301865  0.45194809  1
  Sn  Sn23  1  0.68874143  0.56391161  0.45197563  1
  Sn  Sn24  1  0.21579100  0.31083800  0.34996900  1
  Sn  Sn25  1  0.21579100  0.81083800  0.34996900  1
  Sn  Sn26  1  0.54912400  0.31083800  0.34996900  1
  Sn  Sn27  1  0.54912400  0.81083800  0.34996900  1
  Sn  Sn28  1  0.88245700  0.31083800  0.34996900  1
  Sn  Sn29  1  0.88245700  0.81083800  0.34996900  1
  Sn  Sn30  1  0.03172900  0.06063000  0.35002900  1
  Sn  Sn31  1  0.03172900  0.56063000  0.35002900  1
  Sn  Sn32  1  0.36506200  0.06063000  0.35002900  1
  Sn  Sn33  1  0.36506200  0.56063000  0.35002900  1
  Sn  Sn34  1  0.69839600  0.06063000  0.35002900  1
  Sn  Sn35  1  0.69839600  0.56063000  0.35002900  1
  O  O36  1  0.53819656  0.29982872  0.65998230  1
  C  C37  1  0.54551231  0.31099706  0.62288746  1
