# generated using pymatgen
data_Sn36CO2
_symmetry_space_group_name_H-M   'P 1'
_cell_length_a   9.43221838
_cell_length_b   11.60326658
_cell_length_c   30.60418900
_cell_angle_alpha   90.03914768
_cell_angle_beta   90.23654075
_cell_angle_gamma   88.57775690
_symmetry_Int_Tables_number   1
_chemical_formula_structural   Sn36CO2
_chemical_formula_sum   'Sn36 C1 O2'
_cell_volume   3348.40054919
_cell_formula_units_Z   1
loop_
 _symmetry_equiv_pos_site_id
 _symmetry_equiv_pos_as_xyz
  1  'x, y, z'
loop_
 _atom_site_type_symbol
 _atom_site_label
 _atom_site_symmetry_multiplicity
 _atom_site_fract_x
 _atom_site_fract_y
 _atom_site_fract_z
 _atom_site_occupancy
  Sn  Sn0  1  0.21984160  0.31235750  0.55129497  1
  Sn  Sn1  1  0.21981457  0.81146854  0.55071749  1
  Sn  Sn2  1  0.54988014  0.31041756  0.53879896  1
  Sn  Sn3  1  0.55230214  0.81174547  0.54955028  1
  Sn  Sn4  1  0.88167704  0.31161759  0.55172037  1
  Sn  Sn5  1  0.88469179  0.81136069  0.55099573  1
  Sn  Sn6  1  0.03098302  0.06009901  0.54973329  1
  Sn  Sn7  1  0.03047328  0.56089890  0.54959241  1
  Sn  Sn8  1  0.36459663  0.06098164  0.54957616  1
  Sn  Sn9  1  0.36469777  0.55987825  0.54933666  1
  Sn  Sn10  1  0.69726161  0.06034815  0.54936673  1
  Sn  Sn11  1  0.69622522  0.55960112  0.54981298  1
  Sn  Sn12  1  0.22964559  0.31358324  0.45140066  1
  Sn  Sn13  1  0.23166969  0.81328878  0.45066244  1
  Sn  Sn14  1  0.56630727  0.31525922  0.44355525  1
  Sn  Sn15  1  0.56428084  0.81395616  0.44946264  1
  Sn  Sn16  1  0.89755339  0.31312401  0.45195979  1
  Sn  Sn17  1  0.89818112  0.81406193  0.45073941  1
  Sn  Sn18  1  0.02211694  0.06181818  0.44985293  1
  Sn  Sn19  1  0.02072834  0.56206020  0.44962205  1
  Sn  Sn20  1  0.35443294  0.06184726  0.44916742  1
  Sn  Sn21  1  0.35402260  0.56215301  0.44917768  1
  Sn  Sn22  1  0.68830543  0.06144452  0.45009630  1
  Sn  Sn23  1  0.68827303  0.56404825  0.45038228  1
  Sn  Sn24  1  0.21579100  0.31083800  0.34996900  1
  Sn  Sn25  1  0.21579100  0.81083800  0.34996900  1
  Sn  Sn26  1  0.54912400  0.31083800  0.34996900  1
  Sn  Sn27  1  0.54912400  0.81083800  0.34996900  1
  Sn  Sn28  1  0.88245700  0.31083800  0.34996900  1
  Sn  Sn29  1  0.88245700  0.81083800  0.34996900  1
  Sn  Sn30  1  0.03172900  0.06063000  0.35002900  1
  Sn  Sn31  1  0.03172900  0.56063000  0.35002900  1
  Sn  Sn32  1  0.36506200  0.06063000  0.35002900  1
  Sn  Sn33  1  0.36506200  0.56063000  0.35002900  1
  Sn  Sn34  1  0.69839600  0.06063000  0.35002900  1
  Sn  Sn35  1  0.69839600  0.56063000  0.35002900  1
  C  C36  1  0.54833506  0.31077552  0.64642815  1
  O  O37  1  0.54612001  0.41195771  0.64628864  1
  O  O38  1  0.55060421  0.20976444  0.64626566  1
