# generated using pymatgen
data_Ni26MoH
_symmetry_space_group_name_H-M   'P 1'
_cell_length_a   7.33150949
_cell_length_b   7.33150889
_cell_length_c   21.99719400
_cell_angle_alpha   90.00513446
_cell_angle_beta   93.17934504
_cell_angle_gamma   119.99848735
_symmetry_Int_Tables_number   1
_chemical_formula_structural   Ni26MoH
_chemical_formula_sum   'Ni26 Mo1 H1'
_cell_volume   1021.87426739
_cell_formula_units_Z   1
loop_
 _symmetry_equiv_pos_site_id
 _symmetry_equiv_pos_as_xyz
  1  'x, y, z'
loop_
 _atom_site_type_symbol
 _atom_site_label
 _atom_site_symmetry_multiplicity
 _atom_site_fract_x
 _atom_site_fract_y
 _atom_site_fract_z
 _atom_site_occupancy
  Ni  Ni0  1  0.09090900  0.04545500  0.40909100  1
  Ni  Ni1  1  0.09090900  0.37878800  0.40909100  1
  Ni  Ni2  1  0.09090900  0.71212100  0.40909100  1
  Ni  Ni3  1  0.42424200  0.04545500  0.40909100  1
  Ni  Ni4  1  0.42424200  0.37878800  0.40909100  1
  Ni  Ni5  1  0.42424200  0.71212100  0.40909100  1
  Ni  Ni6  1  0.75757600  0.04545500  0.40909100  1
  Ni  Ni7  1  0.75757600  0.37878800  0.40909100  1
  Ni  Ni8  1  0.75757600  0.71212100  0.40909100  1
  Ni  Ni9  1  0.33378676  0.16702203  0.50127926  1
  Ni  Ni10  1  0.33289646  0.49985794  0.50153483  1
  Ni  Ni11  1  0.33372615  0.83355058  0.50129159  1
  Ni  Ni12  1  0.66732710  0.16705901  0.50024116  1
  Ni  Ni13  1  0.66772728  0.49979879  0.50148606  1
  Ni  Ni14  1  0.66763949  0.83456548  0.50144570  1
  Ni  Ni15  1  0.99990349  0.16704065  0.50021499  1
  Ni  Ni16  1  0.99993126  0.49972360  0.50027899  1
  Ni  Ni17  1  0.00027985  0.83346612  0.50136685  1
  Ni  Ni18  1  0.24063014  0.28535273  0.59271467  1
  Ni  Ni19  1  0.24063940  0.62206215  0.59281974  1
  Ni  Ni20  1  0.24286389  0.95481153  0.59296935  1
  Ni  Ni21  1  0.57557000  0.28560261  0.59283844  1
  Ni  Ni22  1  0.57555136  0.95665494  0.59279823  1
  Ni  Ni23  1  0.90909529  0.28784838  0.59169260  1
  Ni  Ni24  1  0.91176304  0.62203785  0.59297055  1
  Ni  Ni25  1  0.91177078  0.95648391  0.59285272  1
  Mo  Mo26  1  0.57738544  0.62210951  0.59945177  1
  H  H27  1  0.59002394  0.62917233  0.67936484  1
