# generated using pymatgen
data_PtAu26O
_symmetry_space_group_name_H-M   'P 1'
_cell_length_a   8.57606266
_cell_length_b   8.57606266
_cell_length_c   23.65109797
_cell_angle_alpha   88.12641697
_cell_angle_beta   88.12641697
_cell_angle_gamma   63.40130658
_symmetry_Int_Tables_number   1
_chemical_formula_structural   PtAu26O
_chemical_formula_sum   'Pt1 Au26 O1'
_cell_volume   1554.26011481
_cell_formula_units_Z   1
loop_
 _symmetry_equiv_pos_site_id
 _symmetry_equiv_pos_as_xyz
  1  'x, y, z'
loop_
 _atom_site_type_symbol
 _atom_site_label
 _atom_site_symmetry_multiplicity
 _atom_site_fract_x
 _atom_site_fract_y
 _atom_site_fract_z
 _atom_site_occupancy
  Au  Au0  1  0.22405223  0.18504394  0.60721577  1
  Au  Au1  1  0.24920565  0.52955001  0.61794844  1
  Au  Au2  1  0.21459712  0.86417372  0.60386628  1
  Au  Au3  1  0.55132540  0.21297340  0.60154667  1
  Au  Au4  1  0.54413152  0.87965578  0.60167964  1
  Au  Au5  1  0.87587275  0.21841254  0.60050735  1
  Au  Au6  1  0.85063717  0.55998853  0.60815353  1
  Au  Au7  1  0.87325809  0.88952342  0.60215748  1
  Au  Au8  1  0.00828224  0.34084501  0.50374811  1
  Au  Au9  1  0.01487782  0.66695353  0.50779699  1
  Au  Au10  1  0.00663599  0.00542465  0.50148766  1
  Au  Au11  1  0.33546296  0.34788244  0.50432691  1
  Au  Au12  1  0.33800788  0.67941153  0.49840994  1
  Au  Au13  1  0.33324868  0.01758046  0.50197231  1
  Au  Au14  1  0.67277651  0.34240193  0.49964657  1
  Au  Au15  1  0.68464803  0.67147018  0.50026329  1
  Au  Au16  1  0.67048947  0.00861004  0.50050674  1
  Au  Au17  1  0.13333300  0.13333300  0.40000000  1
  Au  Au18  1  0.13333300  0.46666600  0.40000000  1
  Au  Au19  1  0.13333300  0.80000000  0.40000000  1
  Au  Au20  1  0.46666600  0.13333300  0.40000000  1
  Au  Au21  1  0.46666700  0.46666700  0.40000000  1
  Au  Au22  1  0.46666700  0.80000000  0.40000000  1
  Au  Au23  1  0.80000000  0.13333300  0.40000000  1
  Au  Au24  1  0.80000000  0.46666700  0.40000000  1
  Au  Au25  1  0.80000000  0.80000000  0.40000000  1
  Pt  Pt26  1  0.53710556  0.56069488  0.59209074  1
  O  O27  1  0.08584913  0.42517214  0.65235857  1
