# generated using pymatgen
data_Sn36CO
_symmetry_space_group_name_H-M   'P 1'
_cell_length_a   9.43221838
_cell_length_b   11.60326658
_cell_length_c   30.60418900
_cell_angle_alpha   90.03914768
_cell_angle_beta   90.23654075
_cell_angle_gamma   88.57775690
_symmetry_Int_Tables_number   1
_chemical_formula_structural   Sn36CO
_chemical_formula_sum   'Sn36 C1 O1'
_cell_volume   3348.40054919
_cell_formula_units_Z   1
loop_
 _symmetry_equiv_pos_site_id
 _symmetry_equiv_pos_as_xyz
  1  'x, y, z'
loop_
 _atom_site_type_symbol
 _atom_site_label
 _atom_site_symmetry_multiplicity
 _atom_site_fract_x
 _atom_site_fract_y
 _atom_site_fract_z
 _atom_site_occupancy
  Sn  Sn0  1  0.21506342  0.31185350  0.54974358  1
  Sn  Sn1  1  0.21919089  0.81197158  0.55046202  1
  Sn  Sn2  1  0.54997571  0.31082934  0.54217888  1
  Sn  Sn3  1  0.55206452  0.81125724  0.54779841  1
  Sn  Sn4  1  0.88368703  0.31181651  0.55316083  1
  Sn  Sn5  1  0.88596240  0.81111428  0.55197579  1
  Sn  Sn6  1  0.03052502  0.06119047  0.54713226  1
  Sn  Sn7  1  0.03040737  0.56018999  0.54712867  1
  Sn  Sn8  1  0.36290987  0.06024619  0.55248033  1
  Sn  Sn9  1  0.36234731  0.56072713  0.55214707  1
  Sn  Sn10  1  0.69943743  0.05864221  0.55270370  1
  Sn  Sn11  1  0.69862779  0.56149232  0.55335781  1
  Sn  Sn12  1  0.22865051  0.31264524  0.44991483  1
  Sn  Sn13  1  0.23221004  0.81215711  0.44993646  1
  Sn  Sn14  1  0.56570332  0.31587735  0.44251313  1
  Sn  Sn15  1  0.56598449  0.81434820  0.44786884  1
  Sn  Sn16  1  0.89590704  0.31307598  0.45372158  1
  Sn  Sn17  1  0.89986280  0.81429307  0.45193521  1
  Sn  Sn18  1  0.02368544  0.06299148  0.44712384  1
  Sn  Sn19  1  0.02112700  0.56072082  0.44714578  1
  Sn  Sn20  1  0.35645498  0.06153577  0.45239311  1
  Sn  Sn21  1  0.35526444  0.56094471  0.45205509  1
  Sn  Sn22  1  0.68984943  0.06260521  0.45297864  1
  Sn  Sn23  1  0.68946938  0.56390401  0.45378830  1
  Sn  Sn24  1  0.21579100  0.31083800  0.34996900  1
  Sn  Sn25  1  0.21579100  0.81083800  0.34996900  1
  Sn  Sn26  1  0.54912400  0.31083800  0.34996900  1
  Sn  Sn27  1  0.54912400  0.81083800  0.34996900  1
  Sn  Sn28  1  0.88245700  0.31083800  0.34996900  1
  Sn  Sn29  1  0.88245700  0.81083800  0.34996900  1
  Sn  Sn30  1  0.03172900  0.06063000  0.35002900  1
  Sn  Sn31  1  0.03172900  0.56063000  0.35002900  1
  Sn  Sn32  1  0.36506200  0.06063000  0.35002900  1
  Sn  Sn33  1  0.36506200  0.56063000  0.35002900  1
  Sn  Sn34  1  0.69839600  0.06063000  0.35002900  1
  Sn  Sn35  1  0.69839600  0.56063000  0.35002900  1
  O  O36  1  0.53946012  0.29906584  0.66222207  1
  C  C37  1  0.54310621  0.31227810  0.62533433  1
