# generated using pymatgen
data_Au27O
_symmetry_space_group_name_H-M   'P 1'
_cell_length_a   8.57745306
_cell_length_b   8.57952124
_cell_length_c   25.48431000
_cell_angle_alpha   89.99453055
_cell_angle_beta   89.99330683
_cell_angle_gamma   96.00496057
_symmetry_Int_Tables_number   1
_chemical_formula_structural   Au27O
_chemical_formula_sum   'Au27 O1'
_cell_volume   1865.11095498
_cell_formula_units_Z   1
loop_
 _symmetry_equiv_pos_site_id
 _symmetry_equiv_pos_as_xyz
  1  'x, y, z'
loop_
 _atom_site_type_symbol
 _atom_site_label
 _atom_site_symmetry_multiplicity
 _atom_site_fract_x
 _atom_site_fract_y
 _atom_site_fract_z
 _atom_site_occupancy
  Au  Au0  1  0.00062536  0.33338237  0.54135010  1
  Au  Au1  1  0.99934078  0.66660567  0.54134911  1
  Au  Au2  1  0.99999260  0.99999444  0.54103535  1
  Au  Au3  1  0.33674775  0.33675574  0.54324722  1
  Au  Au4  1  0.33502334  0.66491627  0.54243004  1
  Au  Au5  1  0.33337809  0.00062593  0.54134892  1
  Au  Au6  1  0.66491986  0.33503031  0.54242978  1
  Au  Au7  1  0.66322387  0.66321984  0.54326200  1
  Au  Au8  1  0.66660648  0.99934392  0.54134789  1
  Au  Au9  1  0.16382345  0.16382000  0.62519091  1
  Au  Au10  1  0.16266313  0.49799248  0.62573479  1
  Au  Au11  1  0.16824818  0.83169573  0.62509863  1
  Au  Au12  1  0.49799143  0.16265546  0.62573261  1
  Au  Au13  1  0.49979885  0.49980297  0.63060611  1
  Au  Au14  1  0.50195420  0.83718854  0.62573764  1
  Au  Au15  1  0.83169686  0.16825702  0.62509850  1
  Au  Au16  1  0.83717171  0.50196077  0.62574012  1
  Au  Au17  1  0.83612958  0.83613976  0.62518679  1
  Au  Au18  1  0.16666600  0.16666800  0.45833300  1
  Au  Au19  1  0.16666600  0.50000100  0.45833300  1
  Au  Au20  1  0.16666600  0.83333400  0.45833300  1
  Au  Au21  1  0.50000000  0.16666800  0.45833300  1
  Au  Au22  1  0.50000000  0.50000100  0.45833300  1
  Au  Au23  1  0.50000000  0.83333400  0.45833300  1
  Au  Au24  1  0.83333300  0.16666800  0.45833300  1
  Au  Au25  1  0.83333300  0.50000100  0.45833300  1
  Au  Au26  1  0.83333300  0.83333400  0.45833300  1
  O  O27  1  0.50025590  0.50025251  0.70586415  1
