# generated using pymatgen
data_HPtAu26O
_symmetry_space_group_name_H-M   'P 1'
_cell_length_a   8.57606266
_cell_length_b   8.57606266
_cell_length_c   23.65109797
_cell_angle_alpha   88.12641697
_cell_angle_beta   88.12641697
_cell_angle_gamma   63.40130658
_symmetry_Int_Tables_number   1
_chemical_formula_structural   HPtAu26O
_chemical_formula_sum   'H1 Pt1 Au26 O1'
_cell_volume   1554.26011481
_cell_formula_units_Z   1
loop_
 _symmetry_equiv_pos_site_id
 _symmetry_equiv_pos_as_xyz
  1  'x, y, z'
loop_
 _atom_site_type_symbol
 _atom_site_label
 _atom_site_symmetry_multiplicity
 _atom_site_fract_x
 _atom_site_fract_y
 _atom_site_fract_z
 _atom_site_occupancy
  Au  Au0  1  0.20392543  0.20335077  0.60802523  1
  Au  Au1  1  0.20890517  0.53618396  0.60653879  1
  Au  Au2  1  0.21244932  0.86581973  0.60823508  1
  Au  Au3  1  0.53610919  0.20912970  0.60784082  1
  Au  Au4  1  0.54130444  0.87001930  0.60759696  1
  Au  Au5  1  0.86560827  0.21290255  0.60800621  1
  Au  Au6  1  0.86939199  0.54186585  0.60772123  1
  Au  Au7  1  0.87413666  0.87489400  0.60796646  1
  Au  Au8  1  0.00441751  0.33491467  0.50420452  1
  Au  Au9  1  0.00035545  0.66936890  0.50441483  1
  Au  Au10  1  0.00218620  0.00244535  0.50516227  1
  Au  Au11  1  0.33624588  0.33531902  0.50360563  1
  Au  Au12  1  0.33154004  0.67208272  0.50237137  1
  Au  Au13  1  0.33479144  0.00422432  0.50410040  1
  Au  Au14  1  0.67203052  0.33196752  0.50227427  1
  Au  Au15  1  0.66846576  0.66902508  0.50330578  1
  Au  Au16  1  0.66875945  0.00135621  0.50460465  1
  Au  Au17  1  0.13333300  0.13333300  0.40000000  1
  Au  Au18  1  0.13333300  0.46666600  0.40000000  1
  Au  Au19  1  0.13333300  0.80000000  0.40000000  1
  Au  Au20  1  0.46666600  0.13333300  0.40000000  1
  Au  Au21  1  0.46666700  0.46666700  0.40000000  1
  Au  Au22  1  0.46666700  0.80000000  0.40000000  1
  Au  Au23  1  0.80000000  0.13333300  0.40000000  1
  Au  Au24  1  0.80000000  0.46666700  0.40000000  1
  Au  Au25  1  0.80000000  0.80000000  0.40000000  1
  Pt  Pt26  1  0.53983296  0.53974161  0.59738895  1
  O  O27  1  0.19750491  0.51954749  0.75903581  1
  H  H28  1  0.19500345  0.51676577  0.80273692  1
