# generated using pymatgen
data_HAu27O2
_symmetry_space_group_name_H-M   'P 1'
_cell_length_a   8.57745306
_cell_length_b   8.57952124
_cell_length_c   25.48431000
_cell_angle_alpha   89.99453055
_cell_angle_beta   89.99330683
_cell_angle_gamma   96.00496057
_symmetry_Int_Tables_number   1
_chemical_formula_structural   HAu27O2
_chemical_formula_sum   'H1 Au27 O2'
_cell_volume   1865.11095498
_cell_formula_units_Z   1
loop_
 _symmetry_equiv_pos_site_id
 _symmetry_equiv_pos_as_xyz
  1  'x, y, z'
loop_
 _atom_site_type_symbol
 _atom_site_label
 _atom_site_symmetry_multiplicity
 _atom_site_fract_x
 _atom_site_fract_y
 _atom_site_fract_z
 _atom_site_occupancy
  Au  Au0  1  0.00105359  0.33420303  0.54147896  1
  Au  Au1  1  0.99894071  0.66756153  0.54136038  1
  Au  Au2  1  0.99975638  0.00069291  0.54150696  1
  Au  Au3  1  0.33656887  0.33869820  0.54375225  1
  Au  Au4  1  0.33488433  0.66682245  0.54321925  1
  Au  Au5  1  0.33262875  0.00288107  0.54142998  1
  Au  Au6  1  0.66652119  0.33507351  0.54184718  1
  Au  Au7  1  0.66261095  0.66447637  0.54346230  1
  Au  Au8  1  0.66656085  0.00071257  0.54112007  1
  Au  Au9  1  0.16324281  0.16752808  0.62552997  1
  Au  Au10  1  0.16176801  0.50098987  0.62570467  1
  Au  Au11  1  0.16563511  0.83439768  0.62526858  1
  Au  Au12  1  0.49697688  0.17344718  0.62510867  1
  Au  Au13  1  0.49642557  0.51352651  0.63260482  1
  Au  Au14  1  0.49916774  0.84556473  0.62539745  1
  Au  Au15  1  0.83012238  0.16997212  0.62499076  1
  Au  Au16  1  0.83303523  0.50334299  0.62531370  1
  Au  Au17  1  0.83251085  0.83695213  0.62514907  1
  Au  Au18  1  0.16666600  0.16666800  0.45833300  1
  Au  Au19  1  0.16666600  0.50000100  0.45833300  1
  Au  Au20  1  0.16666600  0.83333400  0.45833300  1
  Au  Au21  1  0.50000000  0.16666800  0.45833300  1
  Au  Au22  1  0.50000000  0.50000100  0.45833300  1
  Au  Au23  1  0.50000000  0.83333400  0.45833300  1
  Au  Au24  1  0.83333300  0.16666800  0.45833300  1
  Au  Au25  1  0.83333300  0.50000100  0.45833300  1
  Au  Au26  1  0.83333300  0.83333400  0.45833300  1
  O  O27  1  0.53482086  0.45947992  0.71202203  1
  O  O28  1  0.45301807  0.54681636  0.74679401  1
  H  H29  1  0.53460945  0.63109825  0.75906889  1
