# generated using pymatgen
data_HPtAu26
_symmetry_space_group_name_H-M   'P 1'
_cell_length_a   8.57606266
_cell_length_b   8.57606266
_cell_length_c   23.65109797
_cell_angle_alpha   88.12641697
_cell_angle_beta   88.12641697
_cell_angle_gamma   63.40130658
_symmetry_Int_Tables_number   1
_chemical_formula_structural   HPtAu26
_chemical_formula_sum   'H1 Pt1 Au26'
_cell_volume   1554.26011481
_cell_formula_units_Z   1
loop_
 _symmetry_equiv_pos_site_id
 _symmetry_equiv_pos_as_xyz
  1  'x, y, z'
loop_
 _atom_site_type_symbol
 _atom_site_label
 _atom_site_symmetry_multiplicity
 _atom_site_fract_x
 _atom_site_fract_y
 _atom_site_fract_z
 _atom_site_occupancy
  Au  Au0  1  0.19886715  0.19886693  0.61013534  1
  Au  Au1  1  0.20113626  0.54263925  0.60937262  1
  Au  Au2  1  0.20875298  0.86571635  0.60721893  1
  Au  Au3  1  0.54263944  0.20113606  0.60937263  1
  Au  Au4  1  0.54031671  0.86460597  0.60732253  1
  Au  Au5  1  0.86571654  0.20875279  0.60721892  1
  Au  Au6  1  0.86460613  0.54031651  0.60732252  1
  Au  Au7  1  0.87196188  0.87196173  0.60699843  1
  Au  Au8  1  0.00583468  0.33243399  0.50444709  1
  Au  Au9  1  0.00083361  0.66619308  0.50477017  1
  Au  Au10  1  0.00076582  0.00076570  0.50435140  1
  Au  Au11  1  0.33630851  0.33630843  0.50337243  1
  Au  Au12  1  0.33028592  0.67163874  0.50195857  1
  Au  Au13  1  0.33243413  0.00583461  0.50444709  1
  Au  Au14  1  0.67163884  0.33028582  0.50195857  1
  Au  Au15  1  0.66809118  0.66809107  0.50217539  1
  Au  Au16  1  0.66619321  0.00083351  0.50477018  1
  Au  Au17  1  0.13333300  0.13333300  0.40000000  1
  Au  Au18  1  0.13333300  0.46666600  0.40000000  1
  Au  Au19  1  0.13333300  0.80000000  0.40000000  1
  Au  Au20  1  0.46666600  0.13333300  0.40000000  1
  Au  Au21  1  0.46666700  0.46666700  0.40000000  1
  Au  Au22  1  0.46666700  0.80000000  0.40000000  1
  Au  Au23  1  0.80000000  0.13333300  0.40000000  1
  Au  Au24  1  0.80000000  0.46666700  0.40000000  1
  Au  Au25  1  0.80000000  0.80000000  0.40000000  1
  Pt  Pt26  1  0.53862867  0.53862841  0.59628916  1
  H  H27  1  0.31553726  0.31553701  0.64035758  1
