# generated using pymatgen
data_HAu27O
_symmetry_space_group_name_H-M   'P 1'
_cell_length_a   8.57745306
_cell_length_b   8.57952124
_cell_length_c   25.48431000
_cell_angle_alpha   89.99453055
_cell_angle_beta   89.99330683
_cell_angle_gamma   96.00496057
_symmetry_Int_Tables_number   1
_chemical_formula_structural   HAu27O
_chemical_formula_sum   'H1 Au27 O1'
_cell_volume   1865.11095498
_cell_formula_units_Z   1
loop_
 _symmetry_equiv_pos_site_id
 _symmetry_equiv_pos_as_xyz
  1  'x, y, z'
loop_
 _atom_site_type_symbol
 _atom_site_label
 _atom_site_symmetry_multiplicity
 _atom_site_fract_x
 _atom_site_fract_y
 _atom_site_fract_z
 _atom_site_occupancy
  Au  Au0  1  0.00044047  0.33242947  0.54098993  1
  Au  Au1  1  0.99921995  0.66655599  0.54127285  1
  Au  Au2  1  0.00073924  0.99943927  0.54110589  1
  Au  Au3  1  0.33604309  0.33561933  0.54309980  1
  Au  Au4  1  0.33548367  0.66318613  0.54337565  1
  Au  Au5  1  0.33358609  0.00031116  0.54138289  1
  Au  Au6  1  0.66611639  0.33303272  0.54178120  1
  Au  Au7  1  0.66414138  0.66324835  0.54347564  1
  Au  Au8  1  0.66685111  0.99860536  0.54133932  1
  Au  Au9  1  0.16286537  0.16481100  0.62520526  1
  Au  Au10  1  0.14992007  0.49843717  0.62595534  1
  Au  Au11  1  0.16772113  0.83239046  0.62508751  1
  Au  Au12  1  0.49732928  0.16757292  0.62552094  1
  Au  Au13  1  0.47734928  0.50749212  0.63007495  1
  Au  Au14  1  0.50159542  0.84130586  0.62571265  1
  Au  Au15  1  0.83070872  0.17003381  0.62485104  1
  Au  Au16  1  0.82674140  0.50340365  0.62496126  1
  Au  Au17  1  0.83545623  0.83774261  0.62524673  1
  Au  Au18  1  0.16666600  0.16666800  0.45833300  1
  Au  Au19  1  0.16666600  0.50000100  0.45833300  1
  Au  Au20  1  0.16666600  0.83333400  0.45833300  1
  Au  Au21  1  0.50000000  0.16666800  0.45833300  1
  Au  Au22  1  0.50000000  0.50000100  0.45833300  1
  Au  Au23  1  0.50000000  0.83333400  0.45833300  1
  Au  Au24  1  0.83333300  0.16666800  0.45833300  1
  Au  Au25  1  0.83333300  0.50000100  0.45833300  1
  Au  Au26  1  0.83333300  0.83333400  0.45833300  1
  O  O27  1  0.55576631  0.47452572  0.70430919  1
  H  H28  1  0.47668728  0.51120558  0.72851476  1
