# generated using pymatgen
data_Ni26MoH
_symmetry_space_group_name_H-M   'P 1'
_cell_length_a   7.33150949
_cell_length_b   7.33150889
_cell_length_c   21.99719400
_cell_angle_alpha   90.00513446
_cell_angle_beta   93.17934504
_cell_angle_gamma   119.99848735
_symmetry_Int_Tables_number   1
_chemical_formula_structural   Ni26MoH
_chemical_formula_sum   'Ni26 Mo1 H1'
_cell_volume   1021.87426739
_cell_formula_units_Z   1
loop_
 _symmetry_equiv_pos_site_id
 _symmetry_equiv_pos_as_xyz
  1  'x, y, z'
loop_
 _atom_site_type_symbol
 _atom_site_label
 _atom_site_symmetry_multiplicity
 _atom_site_fract_x
 _atom_site_fract_y
 _atom_site_fract_z
 _atom_site_occupancy
  Ni  Ni0  1  0.09090900  0.04545500  0.40909100  1
  Ni  Ni1  1  0.09090900  0.37878800  0.40909100  1
  Ni  Ni2  1  0.09090900  0.71212100  0.40909100  1
  Ni  Ni3  1  0.42424200  0.04545500  0.40909100  1
  Ni  Ni4  1  0.42424200  0.37878800  0.40909100  1
  Ni  Ni5  1  0.42424200  0.71212100  0.40909100  1
  Ni  Ni6  1  0.75757600  0.04545500  0.40909100  1
  Ni  Ni7  1  0.75757600  0.37878800  0.40909100  1
  Ni  Ni8  1  0.75757600  0.71212100  0.40909100  1
  Ni  Ni9  1  0.33457311  0.16654860  0.50174402  1
  Ni  Ni10  1  0.33120816  0.49892061  0.50101587  1
  Ni  Ni11  1  0.33349539  0.83430635  0.50147990  1
  Ni  Ni12  1  0.66757318  0.16781020  0.50036301  1
  Ni  Ni13  1  0.66877303  0.49926897  0.50158483  1
  Ni  Ni14  1  0.66884317  0.83653441  0.50103061  1
  Ni  Ni15  1  0.00013202  0.16738613  0.50048973  1
  Ni  Ni16  1  0.99978189  0.49994032  0.50039645  1
  Ni  Ni17  1  0.00140635  0.83331390  0.50178179  1
  Ni  Ni18  1  0.24217485  0.28652308  0.59333390  1
  Ni  Ni19  1  0.24290997  0.62281169  0.59334300  1
  Ni  Ni20  1  0.24351410  0.95511483  0.59330027  1
  Ni  Ni21  1  0.57533708  0.28652677  0.59589809  1
  Ni  Ni22  1  0.57592657  0.95573079  0.59331179  1
  Ni  Ni23  1  0.91135713  0.28684158  0.59268777  1
  Ni  Ni24  1  0.91290930  0.62411031  0.59593885  1
  Ni  Ni25  1  0.91200993  0.95627898  0.59339584  1
  Mo  Mo26  1  0.57530858  0.62250784  0.59141992  1
  H  H27  1  0.81109700  0.40142194  0.63589994  1
