# generated using pymatgen
data_HAu27
_symmetry_space_group_name_H-M   'P 1'
_cell_length_a   8.57745306
_cell_length_b   8.57952124
_cell_length_c   25.48431000
_cell_angle_alpha   89.99453055
_cell_angle_beta   89.99330683
_cell_angle_gamma   96.00496057
_symmetry_Int_Tables_number   1
_chemical_formula_structural   HAu27
_chemical_formula_sum   'H1 Au27'
_cell_volume   1865.11095498
_cell_formula_units_Z   1
loop_
 _symmetry_equiv_pos_site_id
 _symmetry_equiv_pos_as_xyz
  1  'x, y, z'
loop_
 _atom_site_type_symbol
 _atom_site_label
 _atom_site_symmetry_multiplicity
 _atom_site_fract_x
 _atom_site_fract_y
 _atom_site_fract_z
 _atom_site_occupancy
  Au  Au0  1  0.00168091  0.33167802  0.54409715  1
  Au  Au1  1  0.99877559  0.66443760  0.54421747  1
  Au  Au2  1  0.99678064  0.99678408  0.54481417  1
  Au  Au3  1  0.33662411  0.33662668  0.54483220  1
  Au  Au4  1  0.33455340  0.66888305  0.54420523  1
  Au  Au5  1  0.33167438  0.00168637  0.54409632  1
  Au  Au6  1  0.66887781  0.33456096  0.54420564  1
  Au  Au7  1  0.66665503  0.66666018  0.54050199  1
  Au  Au8  1  0.66443848  0.99877617  0.54421795  1
  Au  Au9  1  0.16656813  0.16657253  0.62964094  1
  Au  Au10  1  0.17299972  0.49971619  0.62911244  1
  Au  Au11  1  0.16024584  0.83355764  0.62910952  1
  Au  Au12  1  0.49971542  0.17299924  0.62911360  1
  Au  Au13  1  0.50827370  0.50828444  0.63156468  1
  Au  Au14  1  0.48988064  0.84330025  0.63113190  1
  Au  Au15  1  0.83354932  0.16026220  0.62911086  1
  Au  Au16  1  0.84328147  0.48988320  0.63113463  1
  Au  Au17  1  0.82505820  0.82507116  0.63161189  1
  Au  Au18  1  0.16666600  0.16666800  0.45833300  1
  Au  Au19  1  0.16666600  0.50000100  0.45833300  1
  Au  Au20  1  0.16666600  0.83333400  0.45833300  1
  Au  Au21  1  0.50000000  0.16666800  0.45833300  1
  Au  Au22  1  0.50000000  0.50000100  0.45833300  1
  Au  Au23  1  0.50000000  0.83333400  0.45833300  1
  Au  Au24  1  0.83333300  0.16666800  0.45833300  1
  Au  Au25  1  0.83333300  0.50000100  0.45833300  1
  Au  Au26  1  0.83333300  0.83333400  0.45833300  1
  H  H27  1  0.66666820  0.66661416  0.65243815  1
