# generated using pymatgen
data_Fe4Mo12HS16
_symmetry_space_group_name_H-M   'P 1'
_cell_length_a   6.48394610
_cell_length_b   6.41202525
_cell_length_c   27.90841600
_cell_angle_alpha   93.69337570
_cell_angle_beta   94.75362703
_cell_angle_gamma   97.43854579
_symmetry_Int_Tables_number   1
_chemical_formula_structural   Fe4Mo12HS16
_chemical_formula_sum   'Fe4 Mo12 H1 S16'
_cell_volume   1143.25638445
_cell_formula_units_Z   1
loop_
 _symmetry_equiv_pos_site_id
 _symmetry_equiv_pos_as_xyz
  1  'x, y, z'
loop_
 _atom_site_type_symbol
 _atom_site_label
 _atom_site_symmetry_multiplicity
 _atom_site_fract_x
 _atom_site_fract_y
 _atom_site_fract_z
 _atom_site_occupancy
  Fe  Fe0  1  0.93156877  0.15647687  0.46485880  1
  Fe  Fe1  1  0.79890972  0.11055930  0.64985234  1
  Fe  Fe2  1  0.06524100  0.84263700  0.26375600  1
  Fe  Fe3  1  0.04542607  0.83597368  0.49725024  1
  Mo  Mo4  1  0.21917642  0.53833126  0.34327495  1
  Mo  Mo5  1  0.19492523  0.52929838  0.57602701  1
  Mo  Mo6  1  0.77912872  0.45965768  0.38765933  1
  Mo  Mo7  1  0.75567246  0.46135433  0.61642118  1
  Mo  Mo8  1  0.40645632  0.21760935  0.37481410  1
  Mo  Mo9  1  0.38355067  0.20663198  0.60825132  1
  Mo  Mo10  1  0.59138531  0.78204064  0.35572505  1
  Mo  Mo11  1  0.56217039  0.77365573  0.58831966  1
  Mo  Mo12  1  0.54135300  0.40905600  0.30082200  1
  Mo  Mo13  1  0.51898874  0.40288712  0.53206524  1
  Mo  Mo14  1  0.45282048  0.59058340  0.43072140  1
  Mo  Mo15  1  0.42741046  0.56767086  0.66160938  1
  S  S16  1  0.12902595  0.35783030  0.41666279  1
  S  S17  1  0.09549741  0.34537567  0.64905290  1
  S  S18  1  0.86842500  0.63937200  0.31349000  1
  S  S19  1  0.84456448  0.63903217  0.54553538  1
  S  S20  1  0.72301900  0.14241800  0.33608800  1
  S  S21  1  0.69600888  0.12838643  0.56632403  1
  S  S22  1  0.27492927  0.85720400  0.39460923  1
  S  S23  1  0.25184993  0.84510196  0.62993770  1
  S  S24  1  0.38478400  0.73178900  0.28021200  1
  S  S25  1  0.36129931  0.72153806  0.51180688  1
  S  S26  1  0.61107422  0.26806392  0.45139873  1
  S  S27  1  0.56755044  0.26116239  0.69358186  1
  S  S28  1  0.20162900  0.19284800  0.29629700  1
  S  S29  1  0.18041641  0.18500690  0.52846174  1
  S  S30  1  0.79411732  0.80622480  0.43517991  1
  S  S31  1  0.76557483  0.77598291  0.67052591  1
  H  H32  1  0.42586319  0.11858381  0.71301671  1
