# generated using pymatgen
data_HPt(Au13O)2
_symmetry_space_group_name_H-M   'P 1'
_cell_length_a   8.57606266
_cell_length_b   8.57606266
_cell_length_c   23.65109797
_cell_angle_alpha   88.12641697
_cell_angle_beta   88.12641697
_cell_angle_gamma   63.40130658
_symmetry_Int_Tables_number   1
_chemical_formula_structural   HPt(Au13O)2
_chemical_formula_sum   'H1 Pt1 Au26 O2'
_cell_volume   1554.26011481
_cell_formula_units_Z   1
loop_
 _symmetry_equiv_pos_site_id
 _symmetry_equiv_pos_as_xyz
  1  'x, y, z'
loop_
 _atom_site_type_symbol
 _atom_site_label
 _atom_site_symmetry_multiplicity
 _atom_site_fract_x
 _atom_site_fract_y
 _atom_site_fract_z
 _atom_site_occupancy
  Au  Au0  1  0.22097759  0.21191644  0.60654683  1
  Au  Au1  1  0.19641342  0.55191735  0.60484275  1
  Au  Au2  1  0.21328009  0.87482265  0.60760509  1
  Au  Au3  1  0.56670593  0.18477421  0.61456945  1
  Au  Au4  1  0.54295287  0.87649110  0.60472410  1
  Au  Au5  1  0.90213590  0.19200008  0.60507207  1
  Au  Au6  1  0.87501326  0.53473664  0.60618789  1
  Au  Au7  1  0.88153174  0.86623681  0.60749761  1
  Au  Au8  1  0.00592493  0.33712947  0.50331829  1
  Au  Au9  1  0.00064033  0.67162787  0.50199498  1
  Au  Au10  1  0.00050946  0.00341317  0.50266902  1
  Au  Au11  1  0.34039476  0.33890886  0.50556420  1
  Au  Au12  1  0.33515217  0.67448446  0.50321785  1
  Au  Au13  1  0.33312187  0.00864132  0.50326357  1
  Au  Au14  1  0.67203721  0.33714149  0.50651714  1
  Au  Au15  1  0.66599266  0.67181292  0.50349124  1
  Au  Au16  1  0.66477501  0.01028983  0.50578217  1
  Au  Au17  1  0.13333300  0.13333300  0.40000000  1
  Au  Au18  1  0.13333300  0.46666600  0.40000000  1
  Au  Au19  1  0.13333300  0.80000000  0.40000000  1
  Au  Au20  1  0.46666600  0.13333300  0.40000000  1
  Au  Au21  1  0.46666700  0.46666700  0.40000000  1
  Au  Au22  1  0.46666700  0.80000000  0.40000000  1
  Au  Au23  1  0.80000000  0.13333300  0.40000000  1
  Au  Au24  1  0.80000000  0.46666700  0.40000000  1
  Au  Au25  1  0.80000000  0.80000000  0.40000000  1
  Pt  Pt26  1  0.53875968  0.55591136  0.60183199  1
  O  O27  1  0.54771471  0.39887576  0.66492464  1
  O  O28  1  0.44612226  0.71266421  0.75181520  1
  H  H29  1  0.46578708  0.66611411  0.71351988  1
