# generated using pymatgen
data_HPt(Au13O)2
_symmetry_space_group_name_H-M   'P 1'
_cell_length_a   8.57606266
_cell_length_b   8.57606266
_cell_length_c   23.65109797
_cell_angle_alpha   88.12641697
_cell_angle_beta   88.12641697
_cell_angle_gamma   63.40130658
_symmetry_Int_Tables_number   1
_chemical_formula_structural   HPt(Au13O)2
_chemical_formula_sum   'H1 Pt1 Au26 O2'
_cell_volume   1554.26011481
_cell_formula_units_Z   1
loop_
 _symmetry_equiv_pos_site_id
 _symmetry_equiv_pos_as_xyz
  1  'x, y, z'
loop_
 _atom_site_type_symbol
 _atom_site_label
 _atom_site_symmetry_multiplicity
 _atom_site_fract_x
 _atom_site_fract_y
 _atom_site_fract_z
 _atom_site_occupancy
  Au  Au0  1  0.20603617  0.20142969  0.60449155  1
  Au  Au1  1  0.20157277  0.54029478  0.60620466  1
  Au  Au2  1  0.20655851  0.87186575  0.60490023  1
  Au  Au3  1  0.54187301  0.20494895  0.60423320  1
  Au  Au4  1  0.53671053  0.87061366  0.60518177  1
  Au  Au5  1  0.86730976  0.21446479  0.60642868  1
  Au  Au6  1  0.86253629  0.54584647  0.60546878  1
  Au  Au7  1  0.86682617  0.88058119  0.60570442  1
  Au  Au8  1  0.00219148  0.33553587  0.50349428  1
  Au  Au9  1  0.00520053  0.66644826  0.50535778  1
  Au  Au10  1  0.00024522  0.00343426  0.50407134  1
  Au  Au11  1  0.33304562  0.33875514  0.50398938  1
  Au  Au12  1  0.33250243  0.67237524  0.50226644  1
  Au  Au13  1  0.33511988  0.00480267  0.50199988  1
  Au  Au14  1  0.66991569  0.33327343  0.50118271  1
  Au  Au15  1  0.66874996  0.66992084  0.50174435  1
  Au  Au16  1  0.66869350  0.00084968  0.50240011  1
  Au  Au17  1  0.13333300  0.13333300  0.40000000  1
  Au  Au18  1  0.13333300  0.46666600  0.40000000  1
  Au  Au19  1  0.13333300  0.80000000  0.40000000  1
  Au  Au20  1  0.46666600  0.13333300  0.40000000  1
  Au  Au21  1  0.46666700  0.46666700  0.40000000  1
  Au  Au22  1  0.46666700  0.80000000  0.40000000  1
  Au  Au23  1  0.80000000  0.13333300  0.40000000  1
  Au  Au24  1  0.80000000  0.46666700  0.40000000  1
  Au  Au25  1  0.80000000  0.80000000  0.40000000  1
  Pt  Pt26  1  0.54231854  0.53728847  0.59598029  1
  O  O27  1  0.25589618  0.48297723  0.69645353  1
  O  O28  1  0.11148529  0.59747852  0.73328967  1
  H  H29  1  0.14395350  0.69150272  0.74068212  1
