# generated using pymatgen
data_Pd27O
_symmetry_space_group_name_H-M   'P 1'
_cell_length_a   8.25699600
_cell_length_b   8.25682200
_cell_length_c   23.35403400
_cell_angle_alpha   89.99925057
_cell_angle_beta   89.99908404
_cell_angle_gamma   89.99983345
_symmetry_Int_Tables_number   1
_chemical_formula_structural   Pd27O
_chemical_formula_sum   'Pd27 O1'
_cell_volume   1592.19737858
_cell_formula_units_Z   1
loop_
 _symmetry_equiv_pos_site_id
 _symmetry_equiv_pos_as_xyz
  1  'x, y, z'
loop_
 _atom_site_type_symbol
 _atom_site_label
 _atom_site_symmetry_multiplicity
 _atom_site_fract_x
 _atom_site_fract_y
 _atom_site_fract_z
 _atom_site_occupancy
  Pd  Pd0  1  0.00000100  0.33333500  0.45838000  1
  Pd  Pd1  1  0.00000100  0.66666800  0.45838000  1
  Pd  Pd2  1  0.00000100  0.00000100  0.45838000  1
  Pd  Pd3  1  0.33333400  0.33333500  0.45838000  1
  Pd  Pd4  1  0.33333400  0.66666800  0.45838000  1
  Pd  Pd5  1  0.33333400  0.00000100  0.45838000  1
  Pd  Pd6  1  0.66666700  0.33333500  0.45838000  1
  Pd  Pd7  1  0.66666700  0.66666800  0.45838000  1
  Pd  Pd8  1  0.66666700  0.00000100  0.45838000  1
  Pd  Pd9  1  0.16666300  0.16666600  0.37499900  1
  Pd  Pd10  1  0.16666300  0.50000000  0.37499900  1
  Pd  Pd11  1  0.16666300  0.83333300  0.37499900  1
  Pd  Pd12  1  0.49999600  0.16666600  0.37499900  1
  Pd  Pd13  1  0.49999600  0.50000000  0.37499900  1
  Pd  Pd14  1  0.49999600  0.83333300  0.37499900  1
  Pd  Pd15  1  0.83333000  0.16666600  0.37499900  1
  Pd  Pd16  1  0.83333000  0.50000000  0.37499900  1
  Pd  Pd17  1  0.83333000  0.83333300  0.37499900  1
  Pd  Pd18  1  0.16588573  0.16588671  0.54210497  1
  Pd  Pd19  1  0.16512800  0.49999246  0.54246275  1
  Pd  Pd20  1  0.16588556  0.83409829  0.54210576  1
  Pd  Pd21  1  0.49999162  0.16512881  0.54246270  1
  Pd  Pd22  1  0.49999396  0.49999498  0.54174971  1
  Pd  Pd23  1  0.49999234  0.83486164  0.54246525  1
  Pd  Pd24  1  0.83409797  0.16588663  0.54210551  1
  Pd  Pd25  1  0.83486091  0.49999317  0.54246505  1
  Pd  Pd26  1  0.83409882  0.83409912  0.54210618  1
  O  O27  1  0.49998678  0.49998796  0.61916826  1
