# generated using pymatgen
data_Ni26MoH
_symmetry_space_group_name_H-M   'P 1'
_cell_length_a   7.33150949
_cell_length_b   7.33150889
_cell_length_c   21.99719400
_cell_angle_alpha   90.00513446
_cell_angle_beta   93.17934504
_cell_angle_gamma   119.99848735
_symmetry_Int_Tables_number   1
_chemical_formula_structural   Ni26MoH
_chemical_formula_sum   'Ni26 Mo1 H1'
_cell_volume   1021.87426739
_cell_formula_units_Z   1
loop_
 _symmetry_equiv_pos_site_id
 _symmetry_equiv_pos_as_xyz
  1  'x, y, z'
loop_
 _atom_site_type_symbol
 _atom_site_label
 _atom_site_symmetry_multiplicity
 _atom_site_fract_x
 _atom_site_fract_y
 _atom_site_fract_z
 _atom_site_occupancy
  Ni  Ni0  1  0.09090900  0.04545500  0.40909100  1
  Ni  Ni1  1  0.09090900  0.37878800  0.40909100  1
  Ni  Ni2  1  0.09090900  0.71212100  0.40909100  1
  Ni  Ni3  1  0.42424200  0.04545500  0.40909100  1
  Ni  Ni4  1  0.42424200  0.37878800  0.40909100  1
  Ni  Ni5  1  0.42424200  0.71212100  0.40909100  1
  Ni  Ni6  1  0.75757600  0.04545500  0.40909100  1
  Ni  Ni7  1  0.75757600  0.37878800  0.40909100  1
  Ni  Ni8  1  0.75757600  0.71212100  0.40909100  1
  Ni  Ni9  1  0.33420250  0.16640962  0.50142655  1
  Ni  Ni10  1  0.33164987  0.49921738  0.50100273  1
  Ni  Ni11  1  0.33353224  0.83430685  0.50124412  1
  Ni  Ni12  1  0.66754640  0.16792571  0.49982197  1
  Ni  Ni13  1  0.66851706  0.49964729  0.50173621  1
  Ni  Ni14  1  0.66860438  0.83613805  0.50103529  1
  Ni  Ni15  1  0.99998738  0.16738934  0.50012225  1
  Ni  Ni16  1  0.99953320  0.49993458  0.49998012  1
  Ni  Ni17  1  0.00118600  0.83318040  0.50154673  1
  Ni  Ni18  1  0.24134951  0.28596471  0.59262764  1
  Ni  Ni19  1  0.24199797  0.62265283  0.59266652  1
  Ni  Ni20  1  0.24310374  0.95492035  0.59291065  1
  Ni  Ni21  1  0.57486480  0.28587719  0.59504229  1
  Ni  Ni22  1  0.57574333  0.95616174  0.59264067  1
  Ni  Ni23  1  0.91086854  0.28673282  0.59221939  1
  Ni  Ni24  1  0.91283206  0.62390651  0.59549626  1
  Ni  Ni25  1  0.91206417  0.95642359  0.59271370  1
  Mo  Mo26  1  0.57536400  0.62261168  0.59258520  1
  H  H27  1  0.81018531  0.40156382  0.63511111  1
