# generated using pymatgen
data_Au27O
_symmetry_space_group_name_H-M   'P 1'
_cell_length_a   8.57745306
_cell_length_b   8.57952124
_cell_length_c   25.48431000
_cell_angle_alpha   89.99453055
_cell_angle_beta   89.99330683
_cell_angle_gamma   96.00496057
_symmetry_Int_Tables_number   1
_chemical_formula_structural   Au27O
_chemical_formula_sum   'Au27 O1'
_cell_volume   1865.11095498
_cell_formula_units_Z   1
loop_
 _symmetry_equiv_pos_site_id
 _symmetry_equiv_pos_as_xyz
  1  'x, y, z'
loop_
 _atom_site_type_symbol
 _atom_site_label
 _atom_site_symmetry_multiplicity
 _atom_site_fract_x
 _atom_site_fract_y
 _atom_site_fract_z
 _atom_site_occupancy
  Au  Au0  1  0.00232349  0.33296129  0.54250904  1
  Au  Au1  1  0.99770924  0.66696260  0.54248211  1
  Au  Au2  1  0.99995589  0.99995791  0.54202267  1
  Au  Au3  1  0.33903573  0.33904484  0.54476735  1
  Au  Au4  1  0.33272438  0.66719147  0.54393021  1
  Au  Au5  1  0.33295874  0.00232400  0.54250542  1
  Au  Au6  1  0.66719355  0.33273185  0.54393059  1
  Au  Au7  1  0.66095204  0.66094681  0.54477067  1
  Au  Au8  1  0.66696132  0.99771360  0.54247943  1
  Au  Au9  1  0.16541080  0.16540703  0.62652467  1
  Au  Au10  1  0.16262232  0.49944629  0.62753088  1
  Au  Au11  1  0.16659421  0.83327883  0.62672891  1
  Au  Au12  1  0.49944438  0.16260945  0.62752829  1
  Au  Au13  1  0.49986413  0.49986091  0.63471628  1
  Au  Au14  1  0.50045030  0.83730997  0.62749484  1
  Au  Au15  1  0.83327757  0.16659942  0.62672932  1
  Au  Au16  1  0.83729712  0.50045270  0.62749729  1
  Au  Au17  1  0.83446732  0.83447664  0.62651977  1
  Au  Au18  1  0.16666600  0.16666800  0.45833300  1
  Au  Au19  1  0.16666600  0.50000100  0.45833300  1
  Au  Au20  1  0.16666600  0.83333400  0.45833300  1
  Au  Au21  1  0.50000000  0.16666800  0.45833300  1
  Au  Au22  1  0.50000000  0.50000100  0.45833300  1
  Au  Au23  1  0.50000000  0.83333400  0.45833300  1
  Au  Au24  1  0.83333300  0.16666800  0.45833300  1
  Au  Au25  1  0.83333300  0.50000100  0.45833300  1
  Au  Au26  1  0.83333300  0.83333400  0.45833300  1
  O  O27  1  0.50008657  0.50009423  0.71384642  1
