# generated using pymatgen
data_Fe4Mo12HS16
_symmetry_space_group_name_H-M   'P 1'
_cell_length_a   6.48394610
_cell_length_b   6.41202525
_cell_length_c   27.90841600
_cell_angle_alpha   93.69337570
_cell_angle_beta   94.75362703
_cell_angle_gamma   97.43854579
_symmetry_Int_Tables_number   1
_chemical_formula_structural   Fe4Mo12HS16
_chemical_formula_sum   'Fe4 Mo12 H1 S16'
_cell_volume   1143.25638445
_cell_formula_units_Z   1
loop_
 _symmetry_equiv_pos_site_id
 _symmetry_equiv_pos_as_xyz
  1  'x, y, z'
loop_
 _atom_site_type_symbol
 _atom_site_label
 _atom_site_symmetry_multiplicity
 _atom_site_fract_x
 _atom_site_fract_y
 _atom_site_fract_z
 _atom_site_occupancy
  Fe  Fe0  1  0.93018706  0.15525432  0.46027323  1
  Fe  Fe1  1  0.85061462  0.10032089  0.65561151  1
  Fe  Fe2  1  0.06524100  0.84263700  0.26375600  1
  Fe  Fe3  1  0.05754995  0.83425120  0.50311962  1
  Mo  Mo4  1  0.22122160  0.54063551  0.34361236  1
  Mo  Mo5  1  0.19214434  0.53097593  0.57630062  1
  Mo  Mo6  1  0.78583322  0.46051649  0.38763976  1
  Mo  Mo7  1  0.76049386  0.44652935  0.61841097  1
  Mo  Mo8  1  0.40996405  0.21998168  0.37509724  1
  Mo  Mo9  1  0.38378836  0.20374689  0.60711778  1
  Mo  Mo10  1  0.59515062  0.78140295  0.35602279  1
  Mo  Mo11  1  0.57097338  0.77117728  0.58830731  1
  Mo  Mo12  1  0.54135300  0.40905600  0.30082200  1
  Mo  Mo13  1  0.52193588  0.39937830  0.53132907  1
  Mo  Mo14  1  0.45822674  0.59427332  0.43208247  1
  Mo  Mo15  1  0.44120173  0.57364114  0.66299929  1
  S  S16  1  0.13465342  0.36165252  0.41648141  1
  S  S17  1  0.11336943  0.35721538  0.64998156  1
  S  S18  1  0.86842500  0.63937200  0.31349000  1
  S  S19  1  0.84657207  0.63396324  0.54679095  1
  S  S20  1  0.72301900  0.14241800  0.33608800  1
  S  S21  1  0.69857681  0.12578523  0.56523623  1
  S  S22  1  0.28097255  0.85935262  0.39502664  1
  S  S23  1  0.26293533  0.84662456  0.63032833  1
  S  S24  1  0.38478400  0.73178900  0.28021200  1
  S  S25  1  0.36660314  0.72063857  0.51222010  1
  S  S26  1  0.61705885  0.27209924  0.45154326  1
  S  S27  1  0.59391199  0.26502548  0.68568427  1
  S  S28  1  0.20162900  0.19284800  0.29629700  1
  S  S29  1  0.17612627  0.18895987  0.52553301  1
  S  S30  1  0.80600429  0.80362725  0.43798483  1
  S  S31  1  0.78730783  0.76658982  0.67070425  1
  H  H32  1  0.41789446  0.63902170  0.72374060  1
