# generated using pymatgen
data_HPtAu26
_symmetry_space_group_name_H-M   'P 1'
_cell_length_a   8.57606266
_cell_length_b   8.57606266
_cell_length_c   23.65109797
_cell_angle_alpha   88.12641697
_cell_angle_beta   88.12641697
_cell_angle_gamma   63.40130658
_symmetry_Int_Tables_number   1
_chemical_formula_structural   HPtAu26
_chemical_formula_sum   'H1 Pt1 Au26'
_cell_volume   1554.26011481
_cell_formula_units_Z   1
loop_
 _symmetry_equiv_pos_site_id
 _symmetry_equiv_pos_as_xyz
  1  'x, y, z'
loop_
 _atom_site_type_symbol
 _atom_site_label
 _atom_site_symmetry_multiplicity
 _atom_site_fract_x
 _atom_site_fract_y
 _atom_site_fract_z
 _atom_site_occupancy
  Au  Au0  1  0.20155661  0.20155667  0.60934120  1
  Au  Au1  1  0.20351466  0.54545539  0.60929671  1
  Au  Au2  1  0.21102722  0.86844496  0.60628572  1
  Au  Au3  1  0.54545531  0.20351480  0.60929671  1
  Au  Au4  1  0.54319974  0.86598662  0.60639289  1
  Au  Au5  1  0.86844485  0.21102735  0.60628570  1
  Au  Au6  1  0.86598652  0.54319970  0.60639289  1
  Au  Au7  1  0.87427410  0.87427408  0.60716664  1
  Au  Au8  1  0.00506832  0.33253797  0.50424115  1
  Au  Au9  1  0.00119663  0.66610809  0.50476507  1
  Au  Au10  1  0.00059235  0.00059235  0.50409963  1
  Au  Au11  1  0.33567380  0.33567383  0.50315865  1
  Au  Au12  1  0.33134888  0.67031838  0.50193826  1
  Au  Au13  1  0.33253796  0.00506837  0.50424115  1
  Au  Au14  1  0.67031827  0.33134900  0.50193831  1
  Au  Au15  1  0.66805383  0.66805386  0.50177826  1
  Au  Au16  1  0.66610809  0.00119667  0.50476506  1
  Au  Au17  1  0.13333300  0.13333300  0.40000000  1
  Au  Au18  1  0.13333300  0.46666600  0.40000000  1
  Au  Au19  1  0.13333300  0.80000000  0.40000000  1
  Au  Au20  1  0.46666600  0.13333300  0.40000000  1
  Au  Au21  1  0.46666700  0.46666700  0.40000000  1
  Au  Au22  1  0.46666700  0.80000000  0.40000000  1
  Au  Au23  1  0.80000000  0.13333300  0.40000000  1
  Au  Au24  1  0.80000000  0.46666700  0.40000000  1
  Au  Au25  1  0.80000000  0.80000000  0.40000000  1
  Pt  Pt26  1  0.54045034  0.54045057  0.59658227  1
  H  H27  1  0.31660742  0.31660748  0.64064934  1
