# generated using pymatgen
data_HPt(Au13O)2
_symmetry_space_group_name_H-M   'P 1'
_cell_length_a   8.57606266
_cell_length_b   8.57606266
_cell_length_c   23.65109797
_cell_angle_alpha   88.12641697
_cell_angle_beta   88.12641697
_cell_angle_gamma   63.40130658
_symmetry_Int_Tables_number   1
_chemical_formula_structural   HPt(Au13O)2
_chemical_formula_sum   'H1 Pt1 Au26 O2'
_cell_volume   1554.26011481
_cell_formula_units_Z   1
loop_
 _symmetry_equiv_pos_site_id
 _symmetry_equiv_pos_as_xyz
  1  'x, y, z'
loop_
 _atom_site_type_symbol
 _atom_site_label
 _atom_site_symmetry_multiplicity
 _atom_site_fract_x
 _atom_site_fract_y
 _atom_site_fract_z
 _atom_site_occupancy
  Au  Au0  1  0.20140371  0.20904004  0.60381124  1
  Au  Au1  1  0.19918972  0.54613236  0.60668892  1
  Au  Au2  1  0.20438898  0.87669115  0.60223860  1
  Au  Au3  1  0.53855957  0.20643022  0.60304376  1
  Au  Au4  1  0.53568760  0.87159494  0.60376359  1
  Au  Au5  1  0.86515081  0.21365040  0.60416299  1
  Au  Au6  1  0.86306899  0.54415987  0.60438130  1
  Au  Au7  1  0.86651997  0.87889451  0.60373954  1
  Au  Au8  1  0.00105169  0.33614088  0.50227939  1
  Au  Au9  1  0.00403422  0.66708638  0.50415755  1
  Au  Au10  1  0.99936604  0.00373249  0.50243631  1
  Au  Au11  1  0.33182557  0.33925089  0.50313363  1
  Au  Au12  1  0.33198999  0.67141160  0.50081384  1
  Au  Au13  1  0.33325216  0.00593262  0.50158239  1
  Au  Au14  1  0.66821465  0.33508777  0.50019343  1
  Au  Au15  1  0.66791115  0.67011745  0.50082933  1
  Au  Au16  1  0.66630006  0.00270364  0.50154503  1
  Au  Au17  1  0.13333300  0.13333300  0.40000000  1
  Au  Au18  1  0.13333300  0.46666600  0.40000000  1
  Au  Au19  1  0.13333300  0.80000000  0.40000000  1
  Au  Au20  1  0.46666600  0.13333300  0.40000000  1
  Au  Au21  1  0.46666700  0.46666700  0.40000000  1
  Au  Au22  1  0.46666700  0.80000000  0.40000000  1
  Au  Au23  1  0.80000000  0.13333300  0.40000000  1
  Au  Au24  1  0.80000000  0.46666700  0.40000000  1
  Au  Au25  1  0.80000000  0.80000000  0.40000000  1
  Pt  Pt26  1  0.53825731  0.53989776  0.59482648  1
  O  O27  1  0.25218031  0.47807242  0.69696517  1
  O  O28  1  0.12626756  0.58215971  0.73488067  1
  H  H29  1  0.14791142  0.68576953  0.73927136  1
