# generated using pymatgen
data_HPd27O
_symmetry_space_group_name_H-M   'P 1'
_cell_length_a   8.25699600
_cell_length_b   8.25682200
_cell_length_c   23.35403400
_cell_angle_alpha   89.99925057
_cell_angle_beta   89.99908404
_cell_angle_gamma   89.99983345
_symmetry_Int_Tables_number   1
_chemical_formula_structural   HPd27O
_chemical_formula_sum   'Pd27 H1 O1'
_cell_volume   1592.19737858
_cell_formula_units_Z   1
loop_
 _symmetry_equiv_pos_site_id
 _symmetry_equiv_pos_as_xyz
  1  'x, y, z'
loop_
 _atom_site_type_symbol
 _atom_site_label
 _atom_site_symmetry_multiplicity
 _atom_site_fract_x
 _atom_site_fract_y
 _atom_site_fract_z
 _atom_site_occupancy
  Pd  Pd0  1  0.00000200  0.33333400  0.45833700  1
  Pd  Pd1  1  0.00000200  0.66666700  0.45833700  1
  Pd  Pd2  1  0.00000200  0.00000000  0.45833700  1
  Pd  Pd3  1  0.33333600  0.33333300  0.45833700  1
  Pd  Pd4  1  0.33333600  0.66666700  0.45833700  1
  Pd  Pd5  1  0.33333600  0.00000000  0.45833700  1
  Pd  Pd6  1  0.66666900  0.33333300  0.45833700  1
  Pd  Pd7  1  0.66666900  0.66666700  0.45833700  1
  Pd  Pd8  1  0.66666900  0.00000000  0.45833700  1
  Pd  Pd9  1  0.16666300  0.16666600  0.37499900  1
  Pd  Pd10  1  0.16666300  0.50000000  0.37499900  1
  Pd  Pd11  1  0.16666300  0.83333300  0.37499900  1
  Pd  Pd12  1  0.49999600  0.16666600  0.37499900  1
  Pd  Pd13  1  0.49999600  0.50000000  0.37499900  1
  Pd  Pd14  1  0.49999600  0.83333300  0.37499900  1
  Pd  Pd15  1  0.83333000  0.16666600  0.37499900  1
  Pd  Pd16  1  0.83333000  0.50000000  0.37499900  1
  Pd  Pd17  1  0.83333000  0.83333300  0.37499900  1
  Pd  Pd18  1  0.16623032  0.16622792  0.54207222  1
  Pd  Pd19  1  0.16617859  0.50040743  0.54137882  1
  Pd  Pd20  1  0.16636498  0.83412040  0.54226190  1
  Pd  Pd21  1  0.50041458  0.16607103  0.54136144  1
  Pd  Pd22  1  0.50112937  0.50103775  0.54905293  1
  Pd  Pd23  1  0.50005704  0.83314923  0.54156095  1
  Pd  Pd24  1  0.83412651  0.16636421  0.54226160  1
  Pd  Pd25  1  0.83321647  0.50006502  0.54155346  1
  Pd  Pd26  1  0.83381111  0.83381878  0.54231737  1
  O  O27  1  0.46223272  0.46099260  0.63452495  1
  H  H28  1  0.53429149  0.53614670  0.65491276  1
