# generated using pymatgen
data_Sn36HCO
_symmetry_space_group_name_H-M   'P 1'
_cell_length_a   9.43221838
_cell_length_b   11.60326658
_cell_length_c   30.60418900
_cell_angle_alpha   90.03914768
_cell_angle_beta   90.23654075
_cell_angle_gamma   88.57775690
_symmetry_Int_Tables_number   1
_chemical_formula_structural   Sn36HCO
_chemical_formula_sum   'Sn36 H1 C1 O1'
_cell_volume   3348.40054919
_cell_formula_units_Z   1
loop_
 _symmetry_equiv_pos_site_id
 _symmetry_equiv_pos_as_xyz
  1  'x, y, z'
loop_
 _atom_site_type_symbol
 _atom_site_label
 _atom_site_symmetry_multiplicity
 _atom_site_fract_x
 _atom_site_fract_y
 _atom_site_fract_z
 _atom_site_occupancy
  Sn  Sn0  1  0.21332738  0.31112483  0.54847841  1
  Sn  Sn1  1  0.21685807  0.81274678  0.55176620  1
  Sn  Sn2  1  0.54729964  0.31161103  0.55105729  1
  Sn  Sn3  1  0.55107322  0.81174373  0.54826357  1
  Sn  Sn4  1  0.88073218  0.31224835  0.54646908  1
  Sn  Sn5  1  0.88400831  0.81061079  0.55213290  1
  Sn  Sn6  1  0.03493575  0.06245219  0.54734212  1
  Sn  Sn7  1  0.03268162  0.55965459  0.54758120  1
  Sn  Sn8  1  0.36780629  0.06077180  0.55042650  1
  Sn  Sn9  1  0.36590909  0.56138262  0.55252550  1
  Sn  Sn10  1  0.70302710  0.05955196  0.55080163  1
  Sn  Sn11  1  0.70105667  0.56264337  0.54773802  1
  Sn  Sn12  1  0.22390504  0.31260392  0.44968209  1
  Sn  Sn13  1  0.23373265  0.81333621  0.45140911  1
  Sn  Sn14  1  0.55803425  0.31472252  0.44673928  1
  Sn  Sn15  1  0.56608393  0.81418670  0.44870334  1
  Sn  Sn16  1  0.89118631  0.31245329  0.44872861  1
  Sn  Sn17  1  0.90008918  0.81501968  0.45194733  1
  Sn  Sn18  1  0.02929123  0.06268944  0.44782632  1
  Sn  Sn19  1  0.02327578  0.56098622  0.44798903  1
  Sn  Sn20  1  0.36187716  0.06207577  0.45064797  1
  Sn  Sn21  1  0.35710107  0.56067518  0.45241988  1
  Sn  Sn22  1  0.69447780  0.06315660  0.45140398  1
  Sn  Sn23  1  0.69100031  0.56258252  0.44933350  1
  Sn  Sn24  1  0.21579100  0.31083800  0.34996900  1
  Sn  Sn25  1  0.21579100  0.81083800  0.34996900  1
  Sn  Sn26  1  0.54912400  0.31083800  0.34996900  1
  Sn  Sn27  1  0.54912400  0.81083800  0.34996900  1
  Sn  Sn28  1  0.88245700  0.31083800  0.34996900  1
  Sn  Sn29  1  0.88245700  0.81083800  0.34996900  1
  Sn  Sn30  1  0.03172900  0.06063000  0.35002900  1
  Sn  Sn31  1  0.03172900  0.56063000  0.35002900  1
  Sn  Sn32  1  0.36506200  0.06063000  0.35002900  1
  Sn  Sn33  1  0.36506200  0.56063000  0.35002900  1
  Sn  Sn34  1  0.69839600  0.06063000  0.35002900  1
  Sn  Sn35  1  0.69839600  0.56063000  0.35002900  1
  C  C36  1  0.58011895  0.32100249  0.62524881  1
  H  H37  1  0.48943920  0.29551116  0.64658900  1
  O  O38  1  0.69054900  0.35134001  0.64234681  1
