# generated using pymatgen
data_Fe4Mo12HS16
_symmetry_space_group_name_H-M   'P 1'
_cell_length_a   6.48394610
_cell_length_b   6.41202525
_cell_length_c   27.90841600
_cell_angle_alpha   93.69337570
_cell_angle_beta   94.75362703
_cell_angle_gamma   97.43854579
_symmetry_Int_Tables_number   1
_chemical_formula_structural   Fe4Mo12HS16
_chemical_formula_sum   'Fe4 Mo12 H1 S16'
_cell_volume   1143.25638445
_cell_formula_units_Z   1
loop_
 _symmetry_equiv_pos_site_id
 _symmetry_equiv_pos_as_xyz
  1  'x, y, z'
loop_
 _atom_site_type_symbol
 _atom_site_label
 _atom_site_symmetry_multiplicity
 _atom_site_fract_x
 _atom_site_fract_y
 _atom_site_fract_z
 _atom_site_occupancy
  Fe  Fe0  1  0.93223265  0.15521748  0.46065730  1
  Fe  Fe1  1  0.86017657  0.09971541  0.65482889  1
  Fe  Fe2  1  0.06524100  0.84263700  0.26375600  1
  Fe  Fe3  1  0.06057483  0.83330181  0.50248657  1
  Mo  Mo4  1  0.22155557  0.54063218  0.34368243  1
  Mo  Mo5  1  0.19786281  0.53054975  0.57600721  1
  Mo  Mo6  1  0.78628026  0.46031118  0.38760365  1
  Mo  Mo7  1  0.76605219  0.44690602  0.61814471  1
  Mo  Mo8  1  0.41023555  0.21968998  0.37507551  1
  Mo  Mo9  1  0.38971716  0.20459788  0.60690496  1
  Mo  Mo10  1  0.59549675  0.78122692  0.35601049  1
  Mo  Mo11  1  0.57621958  0.77073377  0.58787216  1
  Mo  Mo12  1  0.54135300  0.40905600  0.30082200  1
  Mo  Mo13  1  0.52668711  0.39905294  0.53113685  1
  Mo  Mo14  1  0.45943765  0.59378918  0.43190299  1
  Mo  Mo15  1  0.44684453  0.57452846  0.66270596  1
  S  S16  1  0.13541754  0.36171899  0.41658052  1
  S  S17  1  0.11952038  0.35794433  0.64976781  1
  S  S18  1  0.86842500  0.63937200  0.31349000  1
  S  S19  1  0.85129265  0.63293974  0.54630515  1
  S  S20  1  0.72301900  0.14241800  0.33608800  1
  S  S21  1  0.70424153  0.12574444  0.56499381  1
  S  S22  1  0.28136775  0.85917655  0.39515479  1
  S  S23  1  0.26802259  0.84665511  0.62975358  1
  S  S24  1  0.38478400  0.73178900  0.28021200  1
  S  S25  1  0.37056706  0.72062062  0.51208697  1
  S  S26  1  0.61847201  0.27097485  0.45125043  1
  S  S27  1  0.60118099  0.26472489  0.68532946  1
  S  S28  1  0.20162900  0.19284800  0.29629700  1
  S  S29  1  0.18172798  0.18741254  0.52538141  1
  S  S30  1  0.80628820  0.80423129  0.43773232  1
  S  S31  1  0.79378810  0.76702449  0.67045389  1
  H  H32  1  0.42055955  0.64450316  0.72350264  1
