# generated using pymatgen
data_HPtAu26O
_symmetry_space_group_name_H-M   'P 1'
_cell_length_a   8.57606266
_cell_length_b   8.57606266
_cell_length_c   23.65109797
_cell_angle_alpha   88.12641697
_cell_angle_beta   88.12641697
_cell_angle_gamma   63.40130658
_symmetry_Int_Tables_number   1
_chemical_formula_structural   HPtAu26O
_chemical_formula_sum   'H1 Pt1 Au26 O1'
_cell_volume   1554.26011481
_cell_formula_units_Z   1
loop_
 _symmetry_equiv_pos_site_id
 _symmetry_equiv_pos_as_xyz
  1  'x, y, z'
loop_
 _atom_site_type_symbol
 _atom_site_label
 _atom_site_symmetry_multiplicity
 _atom_site_fract_x
 _atom_site_fract_y
 _atom_site_fract_z
 _atom_site_occupancy
  Au  Au0  1  0.20663972  0.20663979  0.60246464  1
  Au  Au1  1  0.20136825  0.54214679  0.60116841  1
  Au  Au2  1  0.20492594  0.87442283  0.60267626  1
  Au  Au3  1  0.54214669  0.20136821  0.60116841  1
  Au  Au4  1  0.53868851  0.87248664  0.60267303  1
  Au  Au5  1  0.87442278  0.20492594  0.60267625  1
  Au  Au6  1  0.87248662  0.53868860  0.60267300  1
  Au  Au7  1  0.87255437  0.87255448  0.60341932  1
  Au  Au8  1  0.00251005  0.33622457  0.50132857  1
  Au  Au9  1  0.00116868  0.67068416  0.50096932  1
  Au  Au10  1  0.00275978  0.00275978  0.50154454  1
  Au  Au11  1  0.33573681  0.33573684  0.50106213  1
  Au  Au12  1  0.33729663  0.66853744  0.50103295  1
  Au  Au13  1  0.33622462  0.00251006  0.50132857  1
  Au  Au14  1  0.66853741  0.33729666  0.50103294  1
  Au  Au15  1  0.66765969  0.66765979  0.50170151  1
  Au  Au16  1  0.67068411  0.00116871  0.50096933  1
  Au  Au17  1  0.13333300  0.13333300  0.40000000  1
  Au  Au18  1  0.13333300  0.46666600  0.40000000  1
  Au  Au19  1  0.13333300  0.80000000  0.40000000  1
  Au  Au20  1  0.46666600  0.13333300  0.40000000  1
  Au  Au21  1  0.46666700  0.46666700  0.40000000  1
  Au  Au22  1  0.46666700  0.80000000  0.40000000  1
  Au  Au23  1  0.80000000  0.13333300  0.40000000  1
  Au  Au24  1  0.80000000  0.46666700  0.40000000  1
  Au  Au25  1  0.80000000  0.80000000  0.40000000  1
  Pt  Pt26  1  0.54036447  0.54036447  0.59865269  1
  O  O27  1  0.50481556  0.50481559  0.67988031  1
  H  H28  1  0.55967033  0.55967033  0.70334637  1
