# generated using pymatgen
data_Fe4Mo12HS16
_symmetry_space_group_name_H-M   'P 1'
_cell_length_a   6.48394610
_cell_length_b   6.41202525
_cell_length_c   27.90841600
_cell_angle_alpha   93.69337570
_cell_angle_beta   94.75362703
_cell_angle_gamma   97.43854579
_symmetry_Int_Tables_number   1
_chemical_formula_structural   Fe4Mo12HS16
_chemical_formula_sum   'Fe4 Mo12 H1 S16'
_cell_volume   1143.25638445
_cell_formula_units_Z   1
loop_
 _symmetry_equiv_pos_site_id
 _symmetry_equiv_pos_as_xyz
  1  'x, y, z'
loop_
 _atom_site_type_symbol
 _atom_site_label
 _atom_site_symmetry_multiplicity
 _atom_site_fract_x
 _atom_site_fract_y
 _atom_site_fract_z
 _atom_site_occupancy
  Fe  Fe0  1  0.93518928  0.15707107  0.46562397  1
  Fe  Fe1  1  0.85026352  0.11271794  0.65567686  1
  Fe  Fe2  1  0.06524100  0.84263700  0.26375600  1
  Fe  Fe3  1  0.06059366  0.84125614  0.49556381  1
  Mo  Mo4  1  0.21987028  0.53914536  0.34349881  1
  Mo  Mo5  1  0.20776481  0.53855768  0.57579620  1
  Mo  Mo6  1  0.78137024  0.45984772  0.38757913  1
  Mo  Mo7  1  0.76661415  0.46040845  0.61857134  1
  Mo  Mo8  1  0.40757047  0.21870918  0.37501330  1
  Mo  Mo9  1  0.39556096  0.21601269  0.60799138  1
  Mo  Mo10  1  0.59280844  0.78222506  0.35574416  1
  Mo  Mo11  1  0.58030350  0.78015287  0.58853582  1
  Mo  Mo12  1  0.54135300  0.40905600  0.30082200  1
  Mo  Mo13  1  0.53252142  0.40964773  0.53241332  1
  Mo  Mo14  1  0.45658654  0.59201740  0.43083384  1
  Mo  Mo15  1  0.44414471  0.58334403  0.66085890  1
  S  S16  1  0.13165581  0.36036055  0.41717842  1
  S  S17  1  0.11588526  0.36239296  0.64866139  1
  S  S18  1  0.86842500  0.63937200  0.31349000  1
  S  S19  1  0.85859627  0.64428671  0.54588700  1
  S  S20  1  0.72301900  0.14241800  0.33608800  1
  S  S21  1  0.71429610  0.13630800  0.56776776  1
  S  S22  1  0.27640526  0.85811640  0.39485981  1
  S  S23  1  0.26573252  0.85652877  0.62913985  1
  S  S24  1  0.38478400  0.73178900  0.28021200  1
  S  S25  1  0.37718930  0.73023665  0.51208083  1
  S  S26  1  0.61477408  0.26929749  0.45136146  1
  S  S27  1  0.60055653  0.28129585  0.68705060  1
  S  S28  1  0.20162900  0.19284800  0.29629700  1
  S  S29  1  0.19225556  0.19398355  0.52796345  1
  S  S30  1  0.79741313  0.80685707  0.43518223  1
  S  S31  1  0.78587224  0.77955586  0.67049967  1
  H  H32  1  0.95385364  0.10294129  0.70545529  1
