# generated using pymatgen
data_Fe4Mo12HS16
_symmetry_space_group_name_H-M   'P 1'
_cell_length_a   6.48394610
_cell_length_b   6.41202525
_cell_length_c   27.90841600
_cell_angle_alpha   93.69337570
_cell_angle_beta   94.75362703
_cell_angle_gamma   97.43854579
_symmetry_Int_Tables_number   1
_chemical_formula_structural   Fe4Mo12HS16
_chemical_formula_sum   'Fe4 Mo12 H1 S16'
_cell_volume   1143.25638445
_cell_formula_units_Z   1
loop_
 _symmetry_equiv_pos_site_id
 _symmetry_equiv_pos_as_xyz
  1  'x, y, z'
loop_
 _atom_site_type_symbol
 _atom_site_label
 _atom_site_symmetry_multiplicity
 _atom_site_fract_x
 _atom_site_fract_y
 _atom_site_fract_z
 _atom_site_occupancy
  Fe  Fe0  1  0.92762226  0.15380068  0.46473827  1
  Fe  Fe1  1  0.83335702  0.10113470  0.65564337  1
  Fe  Fe2  1  0.06524100  0.84263700  0.26375600  1
  Fe  Fe3  1  0.04428409  0.83377217  0.49764266  1
  Mo  Mo4  1  0.21875065  0.53830134  0.34330371  1
  Mo  Mo5  1  0.19125136  0.52961044  0.57573252  1
  Mo  Mo6  1  0.77800568  0.45873803  0.38786334  1
  Mo  Mo7  1  0.74874111  0.45112291  0.61905262  1
  Mo  Mo8  1  0.40557227  0.21728430  0.37484474  1
  Mo  Mo9  1  0.37842389  0.20681690  0.60797742  1
  Mo  Mo10  1  0.59088732  0.78133566  0.35590327  1
  Mo  Mo11  1  0.56327648  0.77157484  0.58885078  1
  Mo  Mo12  1  0.54135300  0.40905600  0.30082200  1
  Mo  Mo13  1  0.51745497  0.40173773  0.53265007  1
  Mo  Mo14  1  0.45119614  0.58973823  0.43077798  1
  Mo  Mo15  1  0.42575626  0.57303827  0.66076661  1
  S  S16  1  0.12731292  0.35707116  0.41666676  1
  S  S17  1  0.09783181  0.35229938  0.64855159  1
  S  S18  1  0.86842500  0.63937200  0.31349000  1
  S  S19  1  0.84220948  0.63610062  0.54671832  1
  S  S20  1  0.72301900  0.14241800  0.33608800  1
  S  S21  1  0.69772984  0.12738976  0.56814472  1
  S  S22  1  0.27460839  0.85696381  0.39470190  1
  S  S23  1  0.24790683  0.84707549  0.62927240  1
  S  S24  1  0.38478400  0.73178900  0.28021200  1
  S  S25  1  0.36224537  0.72228541  0.51200117  1
  S  S26  1  0.60884315  0.26748133  0.45164604  1
  S  S27  1  0.58236848  0.27120283  0.68730094  1
  S  S28  1  0.20162900  0.19284800  0.29629700  1
  S  S29  1  0.17741698  0.18649649  0.52788202  1
  S  S30  1  0.79230998  0.80398644  0.43556596  1
  S  S31  1  0.76732464  0.76905643  0.67143827  1
  H  H32  1  0.93928783  0.08967249  0.70519142  1
