# generated using pymatgen
data_Sn36CO2
_symmetry_space_group_name_H-M   'P 1'
_cell_length_a   9.43221838
_cell_length_b   11.60326658
_cell_length_c   30.60418900
_cell_angle_alpha   90.03914768
_cell_angle_beta   90.23654075
_cell_angle_gamma   88.57775690
_symmetry_Int_Tables_number   1
_chemical_formula_structural   Sn36CO2
_chemical_formula_sum   'Sn36 C1 O2'
_cell_volume   3348.40054919
_cell_formula_units_Z   1
loop_
 _symmetry_equiv_pos_site_id
 _symmetry_equiv_pos_as_xyz
  1  'x, y, z'
loop_
 _atom_site_type_symbol
 _atom_site_label
 _atom_site_symmetry_multiplicity
 _atom_site_fract_x
 _atom_site_fract_y
 _atom_site_fract_z
 _atom_site_occupancy
  Sn  Sn0  1  0.21234092  0.31187069  0.54707855  1
  Sn  Sn1  1  0.22348446  0.81226580  0.55135519  1
  Sn  Sn2  1  0.54596888  0.31104345  0.55534321  1
  Sn  Sn3  1  0.55590127  0.81126820  0.54764388  1
  Sn  Sn4  1  0.87906029  0.31038753  0.54879718  1
  Sn  Sn5  1  0.88925514  0.81149537  0.55296836  1
  Sn  Sn6  1  0.03440775  0.06133235  0.54693358  1
  Sn  Sn7  1  0.03150267  0.55975907  0.54687667  1
  Sn  Sn8  1  0.36663499  0.06115415  0.54871175  1
  Sn  Sn9  1  0.36381066  0.56028050  0.54919070  1
  Sn  Sn10  1  0.70129448  0.05971566  0.54893207  1
  Sn  Sn11  1  0.69900118  0.56021383  0.54978548  1
  Sn  Sn12  1  0.21677942  0.31083993  0.44868075  1
  Sn  Sn13  1  0.23651840  0.81227102  0.45095715  1
  Sn  Sn14  1  0.55122983  0.31172168  0.44803481  1
  Sn  Sn15  1  0.56933244  0.81228984  0.44798456  1
  Sn  Sn16  1  0.88474343  0.31116731  0.45027914  1
  Sn  Sn17  1  0.90232637  0.81272972  0.45291648  1
  Sn  Sn18  1  0.02920552  0.06153915  0.44760233  1
  Sn  Sn19  1  0.02240500  0.55938993  0.44752002  1
  Sn  Sn20  1  0.36234523  0.06129594  0.44982134  1
  Sn  Sn21  1  0.35624754  0.55897228  0.45008759  1
  Sn  Sn22  1  0.69519005  0.06256783  0.45052703  1
  Sn  Sn23  1  0.69018198  0.55898953  0.45141310  1
  Sn  Sn24  1  0.21579100  0.31083800  0.34996900  1
  Sn  Sn25  1  0.21579100  0.81083800  0.34996900  1
  Sn  Sn26  1  0.54912400  0.31083800  0.34996900  1
  Sn  Sn27  1  0.54912400  0.81083800  0.34996900  1
  Sn  Sn28  1  0.88245700  0.31083800  0.34996900  1
  Sn  Sn29  1  0.88245700  0.81083800  0.34996900  1
  Sn  Sn30  1  0.03172900  0.06063000  0.35002900  1
  Sn  Sn31  1  0.03172900  0.56063000  0.35002900  1
  Sn  Sn32  1  0.36506200  0.06063000  0.35002900  1
  Sn  Sn33  1  0.36506200  0.56063000  0.35002900  1
  Sn  Sn34  1  0.69839600  0.06063000  0.35002900  1
  Sn  Sn35  1  0.69839600  0.56063000  0.35002900  1
  C  C36  1  0.54654288  0.31114370  0.63194745  1
  O  O37  1  0.54390650  0.40841564  0.65005473  1
  O  O38  1  0.55055935  0.21362074  0.64998577  1
