# generated using pymatgen
data_Pd27O
_symmetry_space_group_name_H-M   'P 1'
_cell_length_a   8.25699600
_cell_length_b   8.25682200
_cell_length_c   23.35403400
_cell_angle_alpha   89.99925057
_cell_angle_beta   89.99908404
_cell_angle_gamma   89.99983345
_symmetry_Int_Tables_number   1
_chemical_formula_structural   Pd27O
_chemical_formula_sum   'Pd27 O1'
_cell_volume   1592.19737858
_cell_formula_units_Z   1
loop_
 _symmetry_equiv_pos_site_id
 _symmetry_equiv_pos_as_xyz
  1  'x, y, z'
loop_
 _atom_site_type_symbol
 _atom_site_label
 _atom_site_symmetry_multiplicity
 _atom_site_fract_x
 _atom_site_fract_y
 _atom_site_fract_z
 _atom_site_occupancy
  Pd  Pd0  1  0.99999800  0.33333400  0.45898500  1
  Pd  Pd1  1  0.99999700  0.66666600  0.45898400  1
  Pd  Pd2  1  0.99999500  0.00000100  0.45898500  1
  Pd  Pd3  1  0.33332900  0.33333400  0.45898400  1
  Pd  Pd4  1  0.33332800  0.66666600  0.45898400  1
  Pd  Pd5  1  0.33333100  0.00000200  0.45898500  1
  Pd  Pd6  1  0.66666400  0.33333100  0.45898500  1
  Pd  Pd7  1  0.66666500  0.66666800  0.45898400  1
  Pd  Pd8  1  0.66666400  0.00000200  0.45898500  1
  Pd  Pd9  1  0.16666300  0.16666600  0.37499900  1
  Pd  Pd10  1  0.16666300  0.50000000  0.37499900  1
  Pd  Pd11  1  0.16666300  0.83333300  0.37499900  1
  Pd  Pd12  1  0.49999600  0.16666600  0.37499900  1
  Pd  Pd13  1  0.49999600  0.50000000  0.37499900  1
  Pd  Pd14  1  0.49999600  0.83333300  0.37499900  1
  Pd  Pd15  1  0.83333000  0.16666600  0.37499900  1
  Pd  Pd16  1  0.83333000  0.50000000  0.37499900  1
  Pd  Pd17  1  0.83333000  0.83333300  0.37499900  1
  Pd  Pd18  1  0.16577286  0.16577692  0.54282579  1
  Pd  Pd19  1  0.16601129  0.49999285  0.54250307  1
  Pd  Pd20  1  0.16577294  0.83420885  0.54282556  1
  Pd  Pd21  1  0.49998824  0.16601469  0.54250302  1
  Pd  Pd22  1  0.49999356  0.49999738  0.54666590  1
  Pd  Pd23  1  0.49998927  0.83397308  0.54250129  1
  Pd  Pd24  1  0.83420586  0.16577730  0.54282687  1
  Pd  Pd25  1  0.83397085  0.49999370  0.54250149  1
  Pd  Pd26  1  0.83420627  0.83420946  0.54282659  1
  O  O27  1  0.49998128  0.49997120  0.62773660  1
