# generated using pymatgen
data_HPtAu26
_symmetry_space_group_name_H-M   'P 1'
_cell_length_a   8.57606266
_cell_length_b   8.57606266
_cell_length_c   23.65109797
_cell_angle_alpha   88.12641697
_cell_angle_beta   88.12641697
_cell_angle_gamma   63.40130658
_symmetry_Int_Tables_number   1
_chemical_formula_structural   HPtAu26
_chemical_formula_sum   'H1 Pt1 Au26'
_cell_volume   1554.26011481
_cell_formula_units_Z   1
loop_
 _symmetry_equiv_pos_site_id
 _symmetry_equiv_pos_as_xyz
  1  'x, y, z'
loop_
 _atom_site_type_symbol
 _atom_site_label
 _atom_site_symmetry_multiplicity
 _atom_site_fract_x
 _atom_site_fract_y
 _atom_site_fract_z
 _atom_site_occupancy
  Au  Au0  1  0.20538602  0.19559065  0.60644140  1
  Au  Au1  1  0.20962372  0.53010993  0.60923690  1
  Au  Au2  1  0.20674229  0.86561442  0.60688503  1
  Au  Au3  1  0.53983544  0.20217232  0.60603579  1
  Au  Au4  1  0.53766264  0.86592560  0.60647348  1
  Au  Au5  1  0.86670172  0.21026064  0.60772264  1
  Au  Au6  1  0.86663107  0.54064164  0.60621022  1
  Au  Au7  1  0.86628616  0.87748810  0.60629276  1
  Au  Au8  1  0.00194462  0.33176580  0.50392894  1
  Au  Au9  1  0.00263422  0.66401392  0.50536643  1
  Au  Au10  1  0.99981203  0.99987175  0.50468373  1
  Au  Au11  1  0.33012089  0.33871174  0.50480049  1
  Au  Au12  1  0.32984583  0.66997541  0.50310694  1
  Au  Au13  1  0.33403897  0.00242783  0.50295083  1
  Au  Au14  1  0.66969369  0.32942804  0.50181436  1
  Au  Au15  1  0.66700602  0.66708539  0.50271540  1
  Au  Au16  1  0.66644983  0.99874870  0.50332419  1
  Au  Au17  1  0.13333300  0.13333300  0.40000000  1
  Au  Au18  1  0.13333300  0.46666600  0.40000000  1
  Au  Au19  1  0.13333300  0.80000000  0.40000000  1
  Au  Au20  1  0.46666600  0.13333300  0.40000000  1
  Au  Au21  1  0.46666700  0.46666700  0.40000000  1
  Au  Au22  1  0.46666700  0.80000000  0.40000000  1
  Au  Au23  1  0.80000000  0.13333300  0.40000000  1
  Au  Au24  1  0.80000000  0.46666700  0.40000000  1
  Au  Au25  1  0.80000000  0.80000000  0.40000000  1
  Pt  Pt26  1  0.54363194  0.53375966  0.59728966  1
  H  H27  1  0.20111716  0.53545519  0.67713360  1
