# generated using pymatgen
data_Sn36HCO
_symmetry_space_group_name_H-M   'P 1'
_cell_length_a   9.43221838
_cell_length_b   11.60326658
_cell_length_c   30.60418900
_cell_angle_alpha   90.03914768
_cell_angle_beta   90.23654075
_cell_angle_gamma   88.57775690
_symmetry_Int_Tables_number   1
_chemical_formula_structural   Sn36HCO
_chemical_formula_sum   'Sn36 H1 C1 O1'
_cell_volume   3348.40054919
_cell_formula_units_Z   1
loop_
 _symmetry_equiv_pos_site_id
 _symmetry_equiv_pos_as_xyz
  1  'x, y, z'
loop_
 _atom_site_type_symbol
 _atom_site_label
 _atom_site_symmetry_multiplicity
 _atom_site_fract_x
 _atom_site_fract_y
 _atom_site_fract_z
 _atom_site_occupancy
  Sn  Sn0  1  0.21137353  0.31120424  0.54751354  1
  Sn  Sn1  1  0.21748165  0.81110029  0.55017518  1
  Sn  Sn2  1  0.54419877  0.31033167  0.55144495  1
  Sn  Sn3  1  0.55244141  0.81252042  0.54825341  1
  Sn  Sn4  1  0.87959051  0.31335013  0.54751675  1
  Sn  Sn5  1  0.88694923  0.81164030  0.55382168  1
  Sn  Sn6  1  0.03367437  0.06319307  0.54671253  1
  Sn  Sn7  1  0.03125000  0.55994095  0.54641943  1
  Sn  Sn8  1  0.36621575  0.06031579  0.55453388  1
  Sn  Sn9  1  0.36352787  0.56103034  0.55430399  1
  Sn  Sn10  1  0.70287626  0.06048022  0.54944297  1
  Sn  Sn11  1  0.69969771  0.56299603  0.54887934  1
  Sn  Sn12  1  0.22404585  0.31276041  0.44861028  1
  Sn  Sn13  1  0.23634680  0.81334698  0.44916177  1
  Sn  Sn14  1  0.55739436  0.31342208  0.44801634  1
  Sn  Sn15  1  0.56902699  0.81353662  0.44896416  1
  Sn  Sn16  1  0.89133536  0.31210966  0.44906796  1
  Sn  Sn17  1  0.90237095  0.81486400  0.45351038  1
  Sn  Sn18  1  0.02800005  0.06160890  0.44704522  1
  Sn  Sn19  1  0.02099263  0.56205474  0.44684982  1
  Sn  Sn20  1  0.36035913  0.06335899  0.45503350  1
  Sn  Sn21  1  0.35486829  0.56042609  0.45445273  1
  Sn  Sn22  1  0.69303832  0.06300090  0.45013308  1
  Sn  Sn23  1  0.68838122  0.56076449  0.45021240  1
  Sn  Sn24  1  0.21579100  0.31083800  0.34996900  1
  Sn  Sn25  1  0.21579100  0.81083800  0.34996900  1
  Sn  Sn26  1  0.54912400  0.31083800  0.34996900  1
  Sn  Sn27  1  0.54912400  0.81083800  0.34996900  1
  Sn  Sn28  1  0.88245700  0.31083800  0.34996900  1
  Sn  Sn29  1  0.88245700  0.81083800  0.34996900  1
  Sn  Sn30  1  0.03172900  0.06063000  0.35002900  1
  Sn  Sn31  1  0.03172900  0.56063000  0.35002900  1
  Sn  Sn32  1  0.36506200  0.06063000  0.35002900  1
  Sn  Sn33  1  0.36506200  0.56063000  0.35002900  1
  Sn  Sn34  1  0.69839600  0.06063000  0.35002900  1
  Sn  Sn35  1  0.69839600  0.56063000  0.35002900  1
  C  C36  1  0.58413348  0.32018160  0.62585042  1
  H  H37  1  0.49423261  0.30051047  0.64822837  1
  O  O38  1  0.69888388  0.34572720  0.64038848  1
