# generated using pymatgen
data_HAu27
_symmetry_space_group_name_H-M   'P 1'
_cell_length_a   8.57745306
_cell_length_b   8.57952124
_cell_length_c   25.48431000
_cell_angle_alpha   89.99453055
_cell_angle_beta   89.99330683
_cell_angle_gamma   96.00496057
_symmetry_Int_Tables_number   1
_chemical_formula_structural   HAu27
_chemical_formula_sum   'H1 Au27'
_cell_volume   1865.11095498
_cell_formula_units_Z   1
loop_
 _symmetry_equiv_pos_site_id
 _symmetry_equiv_pos_as_xyz
  1  'x, y, z'
loop_
 _atom_site_type_symbol
 _atom_site_label
 _atom_site_symmetry_multiplicity
 _atom_site_fract_x
 _atom_site_fract_y
 _atom_site_fract_z
 _atom_site_occupancy
  Au  Au0  1  0.00141741  0.33295069  0.54375506  1
  Au  Au1  1  0.99854359  0.66702134  0.54374942  1
  Au  Au2  1  0.99999442  0.99999605  0.54346746  1
  Au  Au3  1  0.33672830  0.33673547  0.54467895  1
  Au  Au4  1  0.33345239  0.66647819  0.54441927  1
  Au  Au5  1  0.33294770  0.00141704  0.54375255  1
  Au  Au6  1  0.66648231  0.33346075  0.54441937  1
  Au  Au7  1  0.66322512  0.66322137  0.54468460  1
  Au  Au8  1  0.66702078  0.99854685  0.54374706  1
  Au  Au9  1  0.16584942  0.16584818  0.62864497  1
  Au  Au10  1  0.16350312  0.49948973  0.62938389  1
  Au  Au11  1  0.16673049  0.83320387  0.62883243  1
  Au  Au12  1  0.49949074  0.16349499  0.62937945  1
  Au  Au13  1  0.49990596  0.49990622  0.63349020  1
  Au  Au14  1  0.50044636  0.83638234  0.62936769  1
  Au  Au15  1  0.83320424  0.16673617  0.62883255  1
  Au  Au16  1  0.83637091  0.50045224  0.62937205  1
  Au  Au17  1  0.83410869  0.83411623  0.62864076  1
  Au  Au18  1  0.16666600  0.16666800  0.45833300  1
  Au  Au19  1  0.16666600  0.50000100  0.45833300  1
  Au  Au20  1  0.16666600  0.83333400  0.45833300  1
  Au  Au21  1  0.50000000  0.16666800  0.45833300  1
  Au  Au22  1  0.50000000  0.50000100  0.45833300  1
  Au  Au23  1  0.50000000  0.83333400  0.45833300  1
  Au  Au24  1  0.83333300  0.16666800  0.45833300  1
  Au  Au25  1  0.83333300  0.50000100  0.45833300  1
  Au  Au26  1  0.83333300  0.83333400  0.45833300  1
  H  H27  1  0.49997426  0.49998021  0.69652864  1
