# generated using pymatgen
data_Ni26MoH
_symmetry_space_group_name_H-M   'P 1'
_cell_length_a   7.33150949
_cell_length_b   7.33150889
_cell_length_c   21.99719400
_cell_angle_alpha   90.00513446
_cell_angle_beta   93.17934504
_cell_angle_gamma   119.99848735
_symmetry_Int_Tables_number   1
_chemical_formula_structural   Ni26MoH
_chemical_formula_sum   'Ni26 Mo1 H1'
_cell_volume   1021.87426739
_cell_formula_units_Z   1
loop_
 _symmetry_equiv_pos_site_id
 _symmetry_equiv_pos_as_xyz
  1  'x, y, z'
loop_
 _atom_site_type_symbol
 _atom_site_label
 _atom_site_symmetry_multiplicity
 _atom_site_fract_x
 _atom_site_fract_y
 _atom_site_fract_z
 _atom_site_occupancy
  Ni  Ni0  1  0.09090900  0.04545500  0.40909100  1
  Ni  Ni1  1  0.09090900  0.37878800  0.40909100  1
  Ni  Ni2  1  0.09090900  0.71212100  0.40909100  1
  Ni  Ni3  1  0.42424200  0.04545500  0.40909100  1
  Ni  Ni4  1  0.42424200  0.37878800  0.40909100  1
  Ni  Ni5  1  0.42424200  0.71212100  0.40909100  1
  Ni  Ni6  1  0.75757600  0.04545500  0.40909100  1
  Ni  Ni7  1  0.75757600  0.37878800  0.40909100  1
  Ni  Ni8  1  0.75757600  0.71212100  0.40909100  1
  Ni  Ni9  1  0.33401901  0.16718710  0.50150067  1
  Ni  Ni10  1  0.33172283  0.49890902  0.50166697  1
  Ni  Ni11  1  0.33418159  0.83485987  0.50126935  1
  Ni  Ni12  1  0.66708182  0.16883883  0.50115166  1
  Ni  Ni13  1  0.66824455  0.49901514  0.50166218  1
  Ni  Ni14  1  0.66910608  0.83773181  0.50014298  1
  Ni  Ni15  1  0.00248086  0.16879685  0.50109043  1
  Ni  Ni16  1  0.00048244  0.50054775  0.50007668  1
  Ni  Ni17  1  0.00152676  0.83478495  0.50128033  1
  Ni  Ni18  1  0.24031111  0.28740353  0.59591100  1
  Ni  Ni19  1  0.24196954  0.62367521  0.59336221  1
  Ni  Ni20  1  0.24258830  0.95375338  0.59246250  1
  Ni  Ni21  1  0.57938961  0.28749685  0.59591029  1
  Ni  Ni22  1  0.57726469  0.95792567  0.59313060  1
  Ni  Ni23  1  0.91049490  0.29011310  0.59171979  1
  Ni  Ni24  1  0.91334799  0.62365705  0.59342243  1
  Ni  Ni25  1  0.91228866  0.95788280  0.59306235  1
  Mo  Mo26  1  0.57886340  0.62666582  0.59165429  1
  H  H27  1  0.45730232  0.36731379  0.64204992  1
