# generated using pymatgen
data_HAu27O2
_symmetry_space_group_name_H-M   'P 1'
_cell_length_a   8.57745306
_cell_length_b   8.57952124
_cell_length_c   25.48431000
_cell_angle_alpha   89.99453055
_cell_angle_beta   89.99330683
_cell_angle_gamma   96.00496057
_symmetry_Int_Tables_number   1
_chemical_formula_structural   HAu27O2
_chemical_formula_sum   'H1 Au27 O2'
_cell_volume   1865.11095498
_cell_formula_units_Z   1
loop_
 _symmetry_equiv_pos_site_id
 _symmetry_equiv_pos_as_xyz
  1  'x, y, z'
loop_
 _atom_site_type_symbol
 _atom_site_label
 _atom_site_symmetry_multiplicity
 _atom_site_fract_x
 _atom_site_fract_y
 _atom_site_fract_z
 _atom_site_occupancy
  Au  Au0  1  0.00147983  0.33347189  0.54333973  1
  Au  Au1  1  0.99864593  0.66822598  0.54330990  1
  Au  Au2  1  0.99931723  0.00042555  0.54387854  1
  Au  Au3  1  0.33646104  0.33701451  0.54480748  1
  Au  Au4  1  0.33386744  0.66753476  0.54480272  1
  Au  Au5  1  0.33217662  0.00160915  0.54334530  1
  Au  Au6  1  0.66732885  0.33352895  0.54430376  1
  Au  Au7  1  0.66292891  0.66372248  0.54495055  1
  Au  Au8  1  0.66677193  0.99898992  0.54331993  1
  Au  Au9  1  0.16590142  0.16836827  0.62834742  1
  Au  Au10  1  0.16132184  0.50208591  0.62874561  1
  Au  Au11  1  0.16511085  0.83480573  0.62868925  1
  Au  Au12  1  0.49931855  0.16779629  0.62804003  1
  Au  Au13  1  0.49767562  0.50873962  0.63197364  1
  Au  Au14  1  0.49846327  0.84172066  0.62993525  1
  Au  Au15  1  0.83248599  0.16837106  0.62845145  1
  Au  Au16  1  0.83448426  0.50196576  0.62861490  1
  Au  Au17  1  0.83104338  0.83469630  0.62881104  1
  Au  Au18  1  0.16666600  0.16666800  0.45833300  1
  Au  Au19  1  0.16666600  0.50000100  0.45833300  1
  Au  Au20  1  0.16666600  0.83333400  0.45833300  1
  Au  Au21  1  0.50000000  0.16666800  0.45833300  1
  Au  Au22  1  0.50000000  0.50000100  0.45833300  1
  Au  Au23  1  0.50000000  0.83333400  0.45833300  1
  Au  Au24  1  0.83333300  0.16666800  0.45833300  1
  Au  Au25  1  0.83333300  0.50000100  0.45833300  1
  Au  Au26  1  0.83333300  0.83333400  0.45833300  1
  O  O27  1  0.49985252  0.44331452  0.71781807  1
  O  O28  1  0.50354171  0.57611604  0.75636012  1
  H  H29  1  0.52638518  0.66874764  0.73340082  1
