# generated using pymatgen
data_HPtAu26
_symmetry_space_group_name_H-M   'P 1'
_cell_length_a   8.57606266
_cell_length_b   8.57606266
_cell_length_c   23.65109797
_cell_angle_alpha   88.12641697
_cell_angle_beta   88.12641697
_cell_angle_gamma   63.40130658
_symmetry_Int_Tables_number   1
_chemical_formula_structural   HPtAu26
_chemical_formula_sum   'H1 Pt1 Au26'
_cell_volume   1554.26011481
_cell_formula_units_Z   1
loop_
 _symmetry_equiv_pos_site_id
 _symmetry_equiv_pos_as_xyz
  1  'x, y, z'
loop_
 _atom_site_type_symbol
 _atom_site_label
 _atom_site_symmetry_multiplicity
 _atom_site_fract_x
 _atom_site_fract_y
 _atom_site_fract_z
 _atom_site_occupancy
  Au  Au0  1  0.20199194  0.20199173  0.60771590  1
  Au  Au1  1  0.20433031  0.53471056  0.60768340  1
  Au  Au2  1  0.20303057  0.86836941  0.60855629  1
  Au  Au3  1  0.53471077  0.20433005  0.60768340  1
  Au  Au4  1  0.53472133  0.87140762  0.60847177  1
  Au  Au5  1  0.86836963  0.20303033  0.60855629  1
  Au  Au6  1  0.87140791  0.53472106  0.60847176  1
  Au  Au7  1  0.86936867  0.86936844  0.60757004  1
  Au  Au8  1  0.99959281  0.33291709  0.50423776  1
  Au  Au9  1  0.99970580  0.66735831  0.50438207  1
  Au  Au10  1  0.99989080  0.99989062  0.50454693  1
  Au  Au11  1  0.33192753  0.33192736  0.50408373  1
  Au  Au12  1  0.33652759  0.66366685  0.50492851  1
  Au  Au13  1  0.33291723  0.99959270  0.50423776  1
  Au  Au14  1  0.66366698  0.33652744  0.50492851  1
  Au  Au15  1  0.66570833  0.66570823  0.50566358  1
  Au  Au16  1  0.66735845  0.99970562  0.50438206  1
  Au  Au17  1  0.13333300  0.13333300  0.40000000  1
  Au  Au18  1  0.13333300  0.46666600  0.40000000  1
  Au  Au19  1  0.13333300  0.80000000  0.40000000  1
  Au  Au20  1  0.46666600  0.13333300  0.40000000  1
  Au  Au21  1  0.46666700  0.46666700  0.40000000  1
  Au  Au22  1  0.46666700  0.80000000  0.40000000  1
  Au  Au23  1  0.80000000  0.13333300  0.40000000  1
  Au  Au24  1  0.80000000  0.46666700  0.40000000  1
  Au  Au25  1  0.80000000  0.80000000  0.40000000  1
  Pt  Pt26  1  0.53727224  0.53727191  0.60653739  1
  H  H27  1  0.53155349  0.53155318  0.67402988  1
