# generated using pymatgen
data_Sn36H
_symmetry_space_group_name_H-M   'P 1'
_cell_length_a   9.43221838
_cell_length_b   11.60326658
_cell_length_c   30.60418900
_cell_angle_alpha   90.03914768
_cell_angle_beta   90.23654075
_cell_angle_gamma   88.57775690
_symmetry_Int_Tables_number   1
_chemical_formula_structural   Sn36H
_chemical_formula_sum   'Sn36 H1'
_cell_volume   3348.40054919
_cell_formula_units_Z   1
loop_
 _symmetry_equiv_pos_site_id
 _symmetry_equiv_pos_as_xyz
  1  'x, y, z'
loop_
 _atom_site_type_symbol
 _atom_site_label
 _atom_site_symmetry_multiplicity
 _atom_site_fract_x
 _atom_site_fract_y
 _atom_site_fract_z
 _atom_site_occupancy
  Sn  Sn0  1  0.21778989  0.31156544  0.54480448  1
  Sn  Sn1  1  0.22454718  0.80885687  0.54569917  1
  Sn  Sn2  1  0.54897486  0.31009751  0.55685333  1
  Sn  Sn3  1  0.56114301  0.80664064  0.54515303  1
  Sn  Sn4  1  0.88556472  0.30927163  0.55211545  1
  Sn  Sn5  1  0.89594230  0.81718969  0.56123194  1
  Sn  Sn6  1  0.03804556  0.06323722  0.54613607  1
  Sn  Sn7  1  0.03793392  0.56209848  0.54421587  1
  Sn  Sn8  1  0.36457864  0.05540871  0.56451000  1
  Sn  Sn9  1  0.37204779  0.56052797  0.54888052  1
  Sn  Sn10  1  0.70025448  0.06206046  0.54724012  1
  Sn  Sn11  1  0.70729100  0.56115940  0.56487443  1
  Sn  Sn12  1  0.22957974  0.30271378  0.44666344  1
  Sn  Sn13  1  0.24089591  0.81448989  0.44638180  1
  Sn  Sn14  1  0.56341640  0.32252774  0.44582257  1
  Sn  Sn15  1  0.57876698  0.80599957  0.44583555  1
  Sn  Sn16  1  0.89524885  0.30990030  0.45320782  1
  Sn  Sn17  1  0.90599655  0.81527752  0.46189228  1
  Sn  Sn18  1  0.02444068  0.05912244  0.44607463  1
  Sn  Sn19  1  0.01308507  0.56178762  0.44547244  1
  Sn  Sn20  1  0.35857020  0.05782169  0.46547229  1
  Sn  Sn21  1  0.34979827  0.55751363  0.45015681  1
  Sn  Sn22  1  0.68509896  0.06707730  0.44860246  1
  Sn  Sn23  1  0.68918780  0.56061843  0.46643587  1
  Sn  Sn24  1  0.21579100  0.31083800  0.34996900  1
  Sn  Sn25  1  0.21579100  0.81083800  0.34996900  1
  Sn  Sn26  1  0.54912400  0.31083800  0.34996900  1
  Sn  Sn27  1  0.54912400  0.81083800  0.34996900  1
  Sn  Sn28  1  0.88245700  0.31083800  0.34996900  1
  Sn  Sn29  1  0.88245700  0.81083800  0.34996900  1
  Sn  Sn30  1  0.03172900  0.06063000  0.35002900  1
  Sn  Sn31  1  0.03172900  0.56063000  0.35002900  1
  Sn  Sn32  1  0.36506200  0.06063000  0.35002900  1
  Sn  Sn33  1  0.36506200  0.56063000  0.35002900  1
  Sn  Sn34  1  0.69839600  0.06063000  0.35002900  1
  Sn  Sn35  1  0.69839600  0.56063000  0.35002900  1
  H  H36  1  0.53827599  0.30792877  0.61461768  1
