# generated using pymatgen
data_Cu27HCO2
_symmetry_space_group_name_H-M   'P 1'
_cell_length_a   7.56629665
_cell_length_b   7.56629665
_cell_length_c   22.70406582
_cell_angle_alpha   86.87439516
_cell_angle_beta   86.87439516
_cell_angle_gamma   60.02635040
_symmetry_Int_Tables_number   1
_chemical_formula_structural   Cu27HCO2
_chemical_formula_sum   'Cu27 H1 C1 O2'
_cell_volume   1123.70819012
_cell_formula_units_Z   1
loop_
 _symmetry_equiv_pos_site_id
 _symmetry_equiv_pos_as_xyz
  1  'x, y, z'
loop_
 _atom_site_type_symbol
 _atom_site_label
 _atom_site_symmetry_multiplicity
 _atom_site_fract_x
 _atom_site_fract_y
 _atom_site_fract_z
 _atom_site_occupancy
  Cu  Cu0  1  0.28787900  0.28787900  0.40909100  1
  Cu  Cu1  1  0.28787900  0.62121200  0.40909100  1
  Cu  Cu2  1  0.28787900  0.95454600  0.40909100  1
  Cu  Cu3  1  0.62121200  0.28787900  0.40909100  1
  Cu  Cu4  1  0.62121200  0.62121200  0.40909100  1
  Cu  Cu5  1  0.62121200  0.95454500  0.40909100  1
  Cu  Cu6  1  0.95454600  0.28787900  0.40909100  1
  Cu  Cu7  1  0.95454500  0.62121200  0.40909100  1
  Cu  Cu8  1  0.95454500  0.95454500  0.40909100  1
  Cu  Cu9  1  0.16687801  0.16668783  0.50113871  1
  Cu  Cu10  1  0.16881456  0.49835701  0.50234726  1
  Cu  Cu11  1  0.16704627  0.83242759  0.50130541  1
  Cu  Cu12  1  0.49895987  0.16829098  0.50221146  1
  Cu  Cu13  1  0.49899984  0.49833895  0.50234949  1
  Cu  Cu14  1  0.50074830  0.83294113  0.50066330  1
  Cu  Cu15  1  0.83303238  0.16668459  0.50114401  1
  Cu  Cu16  1  0.83351389  0.49971822  0.50069474  1
  Cu  Cu17  1  0.83305807  0.83293951  0.50066471  1
  Cu  Cu18  1  0.04564775  0.04498972  0.59346470  1
  Cu  Cu19  1  0.04381744  0.37764558  0.59299681  1
  Cu  Cu20  1  0.04247480  0.71469454  0.59240580  1
  Cu  Cu21  1  0.37851960  0.04183882  0.59243486  1
  Cu  Cu22  1  0.37914574  0.37614014  0.59887351  1
  Cu  Cu23  1  0.37940421  0.71464615  0.59239891  1
  Cu  Cu24  1  0.71624037  0.04184378  0.59242479  1
  Cu  Cu25  1  0.71491878  0.37763906  0.59300527  1
  Cu  Cu26  1  0.71276489  0.71082881  0.59294864  1
  C  C27  1  0.36622475  0.37289943  0.68500805  1
  O  O28  1  0.28511799  0.52353140  0.71681308  1
  O  O29  1  0.45636853  0.18416778  0.71380232  1
  H  H30  1  0.43601930  0.21036183  0.75699256  1
