# generated using pymatgen
data_Cu27HCO
_symmetry_space_group_name_H-M   'P 1'
_cell_length_a   7.56629665
_cell_length_b   7.56629665
_cell_length_c   22.70406582
_cell_angle_alpha   86.87439516
_cell_angle_beta   86.87439516
_cell_angle_gamma   60.02635040
_symmetry_Int_Tables_number   1
_chemical_formula_structural   Cu27HCO
_chemical_formula_sum   'Cu27 H1 C1 O1'
_cell_volume   1123.70819012
_cell_formula_units_Z   1
loop_
 _symmetry_equiv_pos_site_id
 _symmetry_equiv_pos_as_xyz
  1  'x, y, z'
loop_
 _atom_site_type_symbol
 _atom_site_label
 _atom_site_symmetry_multiplicity
 _atom_site_fract_x
 _atom_site_fract_y
 _atom_site_fract_z
 _atom_site_occupancy
  Cu  Cu0  1  0.28787900  0.28787900  0.40909100  1
  Cu  Cu1  1  0.28787900  0.62121200  0.40909100  1
  Cu  Cu2  1  0.28787900  0.95454600  0.40909100  1
  Cu  Cu3  1  0.62121200  0.28787900  0.40909100  1
  Cu  Cu4  1  0.62121200  0.62121200  0.40909100  1
  Cu  Cu5  1  0.62121200  0.95454500  0.40909100  1
  Cu  Cu6  1  0.95454600  0.28787900  0.40909100  1
  Cu  Cu7  1  0.95454500  0.62121200  0.40909100  1
  Cu  Cu8  1  0.95454500  0.95454500  0.40909100  1
  Cu  Cu9  1  0.16755854  0.17138956  0.50106564  1
  Cu  Cu10  1  0.16727935  0.50333105  0.50080733  1
  Cu  Cu11  1  0.16755903  0.83709761  0.50138808  1
  Cu  Cu12  1  0.49991199  0.17085875  0.50077379  1
  Cu  Cu13  1  0.49917750  0.50334379  0.50127892  1
  Cu  Cu14  1  0.49896464  0.83957991  0.50143988  1
  Cu  Cu15  1  0.83341599  0.17160823  0.50134980  1
  Cu  Cu16  1  0.83484736  0.50342961  0.50128446  1
  Cu  Cu17  1  0.83314994  0.83649443  0.50139442  1
  Cu  Cu18  1  0.04483397  0.05098570  0.59273624  1
  Cu  Cu19  1  0.03466550  0.39166461  0.59521259  1
  Cu  Cu20  1  0.04463048  0.72136289  0.59272163  1
  Cu  Cu21  1  0.38290703  0.04664088  0.59603287  1
  Cu  Cu22  1  0.38288275  0.38706432  0.59522310  1
  Cu  Cu23  1  0.37976692  0.71875576  0.59262000  1
  Cu  Cu24  1  0.71639437  0.05022047  0.59261109  1
  Cu  Cu25  1  0.71094233  0.38650217  0.59244104  1
  Cu  Cu26  1  0.71034699  0.71986207  0.59266233  1
  C  C27  1  0.25217659  0.27347573  0.64843056  1
  H  H28  1  0.37739928  0.17933126  0.72449639  1
  O  O29  1  0.24220423  0.27511276  0.70782782  1
