# generated using pymatgen
data_Cu27H
_symmetry_space_group_name_H-M   'P 1'
_cell_length_a   7.56931200
_cell_length_b   7.57163409
_cell_length_c   24.95416000
_cell_angle_alpha   89.99856981
_cell_angle_beta   89.99866020
_cell_angle_gamma   89.99125989
_symmetry_Int_Tables_number   1
_chemical_formula_structural   Cu27H
_chemical_formula_sum   'Cu27 H1'
_cell_volume   1430.17431756
_cell_formula_units_Z   1
loop_
 _symmetry_equiv_pos_site_id
 _symmetry_equiv_pos_as_xyz
  1  'x, y, z'
loop_
 _atom_site_type_symbol
 _atom_site_label
 _atom_site_symmetry_multiplicity
 _atom_site_fract_x
 _atom_site_fract_y
 _atom_site_fract_z
 _atom_site_occupancy
  Cu  Cu0  1  0.99999668  0.99999598  0.53685298  1
  Cu  Cu1  1  0.99999664  0.33403949  0.53631609  1
  Cu  Cu2  1  0.99999146  0.66594958  0.53631461  1
  Cu  Cu3  1  0.33404120  0.99999545  0.53631957  1
  Cu  Cu4  1  0.33292748  0.33292108  0.53772652  1
  Cu  Cu5  1  0.33292075  0.66707755  0.53772574  1
  Cu  Cu6  1  0.66594953  0.99999064  0.53631822  1
  Cu  Cu7  1  0.66707364  0.33291471  0.53772586  1
  Cu  Cu8  1  0.66706794  0.66707198  0.53772745  1
  Cu  Cu9  1  0.00000100  0.00000000  0.39285700  1
  Cu  Cu10  1  0.00000100  0.33333300  0.39285700  1
  Cu  Cu11  1  0.00000100  0.66666700  0.39285700  1
  Cu  Cu12  1  0.33333400  0.00000000  0.39285700  1
  Cu  Cu13  1  0.33333400  0.33333300  0.39285700  1
  Cu  Cu14  1  0.33333400  0.66666700  0.39285700  1
  Cu  Cu15  1  0.66666700  0.00000000  0.39285700  1
  Cu  Cu16  1  0.66666700  0.33333300  0.39285700  1
  Cu  Cu17  1  0.66666700  0.66666700  0.39285700  1
  Cu  Cu18  1  0.16665900  0.16665800  0.46453000  1
  Cu  Cu19  1  0.16665500  0.49999900  0.46452800  1
  Cu  Cu20  1  0.16665800  0.83334100  0.46453000  1
  Cu  Cu21  1  0.50000000  0.16665400  0.46452800  1
  Cu  Cu22  1  0.50000000  0.49999900  0.46452700  1
  Cu  Cu23  1  0.50000000  0.83334400  0.46452900  1
  Cu  Cu24  1  0.83334100  0.16665800  0.46453000  1
  Cu  Cu25  1  0.83334500  0.49999900  0.46452900  1
  Cu  Cu26  1  0.83334100  0.83334100  0.46453100  1
  H  H27  1  0.49999931  0.49999842  0.55867821  1
