# generated using pymatgen
data_Cu27N2
_symmetry_space_group_name_H-M   'P 1'
_cell_length_a   7.56629665
_cell_length_b   7.56629665
_cell_length_c   22.70406582
_cell_angle_alpha   86.87439516
_cell_angle_beta   86.87439516
_cell_angle_gamma   60.02635040
_symmetry_Int_Tables_number   1
_chemical_formula_structural   Cu27N2
_chemical_formula_sum   'Cu27 N2'
_cell_volume   1123.70819012
_cell_formula_units_Z   1
loop_
 _symmetry_equiv_pos_site_id
 _symmetry_equiv_pos_as_xyz
  1  'x, y, z'
loop_
 _atom_site_type_symbol
 _atom_site_label
 _atom_site_symmetry_multiplicity
 _atom_site_fract_x
 _atom_site_fract_y
 _atom_site_fract_z
 _atom_site_occupancy
  Cu  Cu0  1  0.28787900  0.28787900  0.40909100  1
  Cu  Cu1  1  0.28787900  0.62121200  0.40909100  1
  Cu  Cu2  1  0.28787900  0.95454600  0.40909100  1
  Cu  Cu3  1  0.62121200  0.28787900  0.40909100  1
  Cu  Cu4  1  0.62121200  0.62121200  0.40909100  1
  Cu  Cu5  1  0.62121200  0.95454500  0.40909100  1
  Cu  Cu6  1  0.95454600  0.28787900  0.40909100  1
  Cu  Cu7  1  0.95454500  0.62121200  0.40909100  1
  Cu  Cu8  1  0.95454500  0.95454500  0.40909100  1
  Cu  Cu9  1  0.16655581  0.16655583  0.50006729  1
  Cu  Cu10  1  0.16875327  0.49877372  0.50113418  1
  Cu  Cu11  1  0.16654476  0.83357473  0.50006811  1
  Cu  Cu12  1  0.49877370  0.16875325  0.50113419  1
  Cu  Cu13  1  0.49878167  0.49878185  0.50112865  1
  Cu  Cu14  1  0.50041944  0.83321697  0.49959547  1
  Cu  Cu15  1  0.83357466  0.16654481  0.50006813  1
  Cu  Cu16  1  0.83321693  0.50041950  0.49959548  1
  Cu  Cu17  1  0.83321598  0.83321593  0.49959918  1
  Cu  Cu18  1  0.04543601  0.04543614  0.59189887  1
  Cu  Cu19  1  0.04312447  0.37858612  0.59069123  1
  Cu  Cu20  1  0.04313823  0.71494749  0.59069064  1
  Cu  Cu21  1  0.37858606  0.04312458  0.59069120  1
  Cu  Cu22  1  0.37831740  0.37831753  0.59575722  1
  Cu  Cu23  1  0.37856856  0.71493164  0.59068121  1
  Cu  Cu24  1  0.71494748  0.04313824  0.59069065  1
  Cu  Cu25  1  0.71493150  0.37856864  0.59068124  1
  Cu  Cu26  1  0.71214433  0.71214440  0.59124314  1
  N  N27  1  0.36871145  0.36871141  0.68341610  1
  N  N28  1  0.36331313  0.36331311  0.73266335  1
