# generated using pymatgen
data_Cu27HCO
_symmetry_space_group_name_H-M   'P 1'
_cell_length_a   7.56629665
_cell_length_b   7.56629665
_cell_length_c   22.70406582
_cell_angle_alpha   86.87439516
_cell_angle_beta   86.87439516
_cell_angle_gamma   60.02635040
_symmetry_Int_Tables_number   1
_chemical_formula_structural   Cu27HCO
_chemical_formula_sum   'Cu27 H1 C1 O1'
_cell_volume   1123.70819012
_cell_formula_units_Z   1
loop_
 _symmetry_equiv_pos_site_id
 _symmetry_equiv_pos_as_xyz
  1  'x, y, z'
loop_
 _atom_site_type_symbol
 _atom_site_label
 _atom_site_symmetry_multiplicity
 _atom_site_fract_x
 _atom_site_fract_y
 _atom_site_fract_z
 _atom_site_occupancy
  Cu  Cu0  1  0.28787900  0.28787900  0.40909100  1
  Cu  Cu1  1  0.28787900  0.62121200  0.40909100  1
  Cu  Cu2  1  0.28787900  0.95454600  0.40909100  1
  Cu  Cu3  1  0.62121200  0.28787900  0.40909100  1
  Cu  Cu4  1  0.62121200  0.62121200  0.40909100  1
  Cu  Cu5  1  0.62121200  0.95454500  0.40909100  1
  Cu  Cu6  1  0.95454600  0.28787900  0.40909100  1
  Cu  Cu7  1  0.95454500  0.62121200  0.40909100  1
  Cu  Cu8  1  0.95454500  0.95454500  0.40909100  1
  Cu  Cu9  1  0.16517180  0.16583866  0.50049277  1
  Cu  Cu10  1  0.16661350  0.49823530  0.50047779  1
  Cu  Cu11  1  0.16441620  0.83326020  0.50007511  1
  Cu  Cu12  1  0.49735897  0.16750942  0.50052004  1
  Cu  Cu13  1  0.49859533  0.49971288  0.50053238  1
  Cu  Cu14  1  0.49908701  0.83245712  0.50035985  1
  Cu  Cu15  1  0.82976343  0.16798373  0.50126155  1
  Cu  Cu16  1  0.83061145  0.49992412  0.50064569  1
  Cu  Cu17  1  0.83219420  0.83324603  0.50014244  1
  Cu  Cu18  1  0.04277190  0.04509950  0.59218042  1
  Cu  Cu19  1  0.04139754  0.37817108  0.59110593  1
  Cu  Cu20  1  0.04062342  0.71360354  0.59141001  1
  Cu  Cu21  1  0.37566392  0.04358965  0.59151240  1
  Cu  Cu22  1  0.37359963  0.37846814  0.59340576  1
  Cu  Cu23  1  0.37208406  0.71610376  0.59066880  1
  Cu  Cu24  1  0.70909597  0.04368468  0.59161913  1
  Cu  Cu25  1  0.71231939  0.37904949  0.59334699  1
  Cu  Cu26  1  0.70928070  0.71287033  0.59135524  1
  C  C27  1  0.42705929  0.39097834  0.67538242  1
  H  H28  1  0.32508607  0.36068961  0.70657191  1
  O  O29  1  0.55560741  0.42402025  0.69467614  1
