# generated using pymatgen
data_Cu27O
_symmetry_space_group_name_H-M   'P 1'
_cell_length_a   7.56629665
_cell_length_b   7.56629665
_cell_length_c   22.70406582
_cell_angle_alpha   86.87439516
_cell_angle_beta   86.87439516
_cell_angle_gamma   60.02635040
_symmetry_Int_Tables_number   1
_chemical_formula_structural   Cu27O
_chemical_formula_sum   'Cu27 O1'
_cell_volume   1123.70819012
_cell_formula_units_Z   1
loop_
 _symmetry_equiv_pos_site_id
 _symmetry_equiv_pos_as_xyz
  1  'x, y, z'
loop_
 _atom_site_type_symbol
 _atom_site_label
 _atom_site_symmetry_multiplicity
 _atom_site_fract_x
 _atom_site_fract_y
 _atom_site_fract_z
 _atom_site_occupancy
  Cu  Cu0  1  0.28787900  0.28787900  0.40909100  1
  Cu  Cu1  1  0.28787900  0.62121200  0.40909100  1
  Cu  Cu2  1  0.28787900  0.95454600  0.40909100  1
  Cu  Cu3  1  0.62121200  0.28787900  0.40909100  1
  Cu  Cu4  1  0.62121200  0.62121200  0.40909100  1
  Cu  Cu5  1  0.62121200  0.95454500  0.40909100  1
  Cu  Cu6  1  0.95454600  0.28787900  0.40909100  1
  Cu  Cu7  1  0.95454500  0.62121200  0.40909100  1
  Cu  Cu8  1  0.95454500  0.95454500  0.40909100  1
  Cu  Cu9  1  0.16694585  0.16694576  0.50119871  1
  Cu  Cu10  1  0.16882327  0.49869974  0.50181764  1
  Cu  Cu11  1  0.16692136  0.83254181  0.50119803  1
  Cu  Cu12  1  0.49869978  0.16882318  0.50181764  1
  Cu  Cu13  1  0.49869838  0.49869829  0.50181500  1
  Cu  Cu14  1  0.50062598  0.83290220  0.50122733  1
  Cu  Cu15  1  0.83254194  0.16692139  0.50119803  1
  Cu  Cu16  1  0.83290223  0.50062594  0.50122735  1
  Cu  Cu17  1  0.83289691  0.83289695  0.50122288  1
  Cu  Cu18  1  0.04537215  0.04537201  0.59301696  1
  Cu  Cu19  1  0.04269022  0.37851823  0.59265843  1
  Cu  Cu20  1  0.04267109  0.71503809  0.59267745  1
  Cu  Cu21  1  0.37851836  0.04269010  0.59265845  1
  Cu  Cu22  1  0.37825775  0.37825752  0.59711627  1
  Cu  Cu23  1  0.37848368  0.71504527  0.59265948  1
  Cu  Cu24  1  0.71503817  0.04267087  0.59267744  1
  Cu  Cu25  1  0.71504544  0.37848361  0.59265944  1
  Cu  Cu26  1  0.71206520  0.71206507  0.59273042  1
  O  O27  1  0.36959039  0.36959043  0.67626603  1
