# generated using pymatgen
data_Cu27HN2
_symmetry_space_group_name_H-M   'P 1'
_cell_length_a   7.56629665
_cell_length_b   7.56629665
_cell_length_c   22.70406582
_cell_angle_alpha   86.87439516
_cell_angle_beta   86.87439516
_cell_angle_gamma   60.02635040
_symmetry_Int_Tables_number   1
_chemical_formula_structural   Cu27HN2
_chemical_formula_sum   'Cu27 H1 N2'
_cell_volume   1123.70819012
_cell_formula_units_Z   1
loop_
 _symmetry_equiv_pos_site_id
 _symmetry_equiv_pos_as_xyz
  1  'x, y, z'
loop_
 _atom_site_type_symbol
 _atom_site_label
 _atom_site_symmetry_multiplicity
 _atom_site_fract_x
 _atom_site_fract_y
 _atom_site_fract_z
 _atom_site_occupancy
  Cu  Cu0  1  0.28787900  0.28787900  0.40909100  1
  Cu  Cu1  1  0.28787900  0.62121200  0.40909100  1
  Cu  Cu2  1  0.28787900  0.95454600  0.40909100  1
  Cu  Cu3  1  0.62121200  0.28787900  0.40909100  1
  Cu  Cu4  1  0.62121200  0.62121200  0.40909100  1
  Cu  Cu5  1  0.62121200  0.95454500  0.40909100  1
  Cu  Cu6  1  0.95454600  0.28787900  0.40909100  1
  Cu  Cu7  1  0.95454500  0.62121200  0.40909100  1
  Cu  Cu8  1  0.95454500  0.95454500  0.40909100  1
  Cu  Cu9  1  0.16663387  0.16694068  0.50068754  1
  Cu  Cu10  1  0.16913766  0.49893187  0.50153043  1
  Cu  Cu11  1  0.16665592  0.83326891  0.50068464  1
  Cu  Cu12  1  0.49907531  0.16840009  0.50155332  1
  Cu  Cu13  1  0.49846323  0.49881672  0.50165412  1
  Cu  Cu14  1  0.50017960  0.83330452  0.50009981  1
  Cu  Cu15  1  0.83290592  0.16696879  0.50074189  1
  Cu  Cu16  1  0.83341849  0.49983047  0.50039162  1
  Cu  Cu17  1  0.83343341  0.83307802  0.50011578  1
  Cu  Cu18  1  0.04550086  0.04555231  0.59248484  1
  Cu  Cu19  1  0.04305992  0.37870992  0.59192926  1
  Cu  Cu20  1  0.04298650  0.71587415  0.59139169  1
  Cu  Cu21  1  0.37919127  0.04250473  0.59143418  1
  Cu  Cu22  1  0.37759471  0.37856211  0.59663302  1
  Cu  Cu23  1  0.37809493  0.71636518  0.59142761  1
  Cu  Cu24  1  0.71558113  0.04201770  0.59140850  1
  Cu  Cu25  1  0.71525123  0.37873424  0.59220148  1
  Cu  Cu26  1  0.71226535  0.71237767  0.59172957  1
  N  N27  1  0.37657714  0.36973944  0.67719590  1
  N  N28  1  0.35250979  0.36324220  0.72891443  1
  H  H29  1  0.45493860  0.36086654  0.75890190  1
