# generated using pymatgen
data_Cu27CO
_symmetry_space_group_name_H-M   'P 1'
_cell_length_a   7.56629665
_cell_length_b   7.56629665
_cell_length_c   22.70406582
_cell_angle_alpha   86.87439516
_cell_angle_beta   86.87439516
_cell_angle_gamma   60.02635040
_symmetry_Int_Tables_number   1
_chemical_formula_structural   Cu27CO
_chemical_formula_sum   'Cu27 C1 O1'
_cell_volume   1123.70819012
_cell_formula_units_Z   1
loop_
 _symmetry_equiv_pos_site_id
 _symmetry_equiv_pos_as_xyz
  1  'x, y, z'
loop_
 _atom_site_type_symbol
 _atom_site_label
 _atom_site_symmetry_multiplicity
 _atom_site_fract_x
 _atom_site_fract_y
 _atom_site_fract_z
 _atom_site_occupancy
  Cu  Cu0  1  0.28787900  0.28787900  0.40909100  1
  Cu  Cu1  1  0.28787900  0.62121200  0.40909100  1
  Cu  Cu2  1  0.28787900  0.95454600  0.40909100  1
  Cu  Cu3  1  0.62121200  0.28787900  0.40909100  1
  Cu  Cu4  1  0.62121200  0.62121200  0.40909100  1
  Cu  Cu5  1  0.62121200  0.95454500  0.40909100  1
  Cu  Cu6  1  0.95454600  0.28787900  0.40909100  1
  Cu  Cu7  1  0.95454500  0.62121200  0.40909100  1
  Cu  Cu8  1  0.95454500  0.95454500  0.40909100  1
  Cu  Cu9  1  0.16663152  0.16673213  0.50061101  1
  Cu  Cu10  1  0.16805322  0.49934536  0.50045137  1
  Cu  Cu11  1  0.16670778  0.83342372  0.50064165  1
  Cu  Cu12  1  0.49931407  0.16807786  0.50039797  1
  Cu  Cu13  1  0.49922726  0.49927704  0.50060550  1
  Cu  Cu14  1  0.50049470  0.83319558  0.50019126  1
  Cu  Cu15  1  0.83337384  0.16678197  0.50063216  1
  Cu  Cu16  1  0.83311914  0.50059631  0.50018006  1
  Cu  Cu17  1  0.83320277  0.83325697  0.50020396  1
  Cu  Cu18  1  0.04552077  0.04570467  0.59275328  1
  Cu  Cu19  1  0.04297898  0.37917615  0.59113873  1
  Cu  Cu20  1  0.04330107  0.71511959  0.59117550  1
  Cu  Cu21  1  0.37894254  0.04314839  0.59111994  1
  Cu  Cu22  1  0.37877166  0.37899858  0.59365427  1
  Cu  Cu23  1  0.37887960  0.71489575  0.59125872  1
  Cu  Cu24  1  0.71505706  0.04337247  0.59113426  1
  Cu  Cu25  1  0.71476151  0.37911317  0.59123593  1
  Cu  Cu26  1  0.71222938  0.71242348  0.59198870  1
  O  O27  1  0.35887779  0.34975523  0.72542577  1
  C  C28  1  0.36646699  0.36095300  0.67448561  1
