# generated using pymatgen
data_Cu27N2
_symmetry_space_group_name_H-M   'P 1'
_cell_length_a   7.56629665
_cell_length_b   7.56629665
_cell_length_c   22.70406582
_cell_angle_alpha   86.87439516
_cell_angle_beta   86.87439516
_cell_angle_gamma   60.02635040
_symmetry_Int_Tables_number   1
_chemical_formula_structural   Cu27N2
_chemical_formula_sum   'Cu27 N2'
_cell_volume   1123.70819012
_cell_formula_units_Z   1
loop_
 _symmetry_equiv_pos_site_id
 _symmetry_equiv_pos_as_xyz
  1  'x, y, z'
loop_
 _atom_site_type_symbol
 _atom_site_label
 _atom_site_symmetry_multiplicity
 _atom_site_fract_x
 _atom_site_fract_y
 _atom_site_fract_z
 _atom_site_occupancy
  Cu  Cu0  1  0.28787900  0.28787900  0.40909100  1
  Cu  Cu1  1  0.28787900  0.62121200  0.40909100  1
  Cu  Cu2  1  0.28787900  0.95454600  0.40909100  1
  Cu  Cu3  1  0.62121200  0.28787900  0.40909100  1
  Cu  Cu4  1  0.62121200  0.62121200  0.40909100  1
  Cu  Cu5  1  0.62121200  0.95454500  0.40909100  1
  Cu  Cu6  1  0.95454600  0.28787900  0.40909100  1
  Cu  Cu7  1  0.95454500  0.62121200  0.40909100  1
  Cu  Cu8  1  0.95454500  0.95454500  0.40909100  1
  Cu  Cu9  1  0.16687949  0.16687951  0.49969598  1
  Cu  Cu10  1  0.16856611  0.49889210  0.50091232  1
  Cu  Cu11  1  0.16687390  0.83301845  0.49969385  1
  Cu  Cu12  1  0.49889213  0.16856613  0.50091232  1
  Cu  Cu13  1  0.49891269  0.49891270  0.50089953  1
  Cu  Cu14  1  0.50031058  0.83331052  0.49925646  1
  Cu  Cu15  1  0.83301845  0.16687394  0.49969385  1
  Cu  Cu16  1  0.83331055  0.50031059  0.49925645  1
  Cu  Cu17  1  0.83330104  0.83330113  0.49925471  1
  Cu  Cu18  1  0.04550261  0.04550266  0.59082850  1
  Cu  Cu19  1  0.04311711  0.37865294  0.58998536  1
  Cu  Cu20  1  0.04310082  0.71502634  0.58999204  1
  Cu  Cu21  1  0.37865291  0.04311718  0.58998537  1
  Cu  Cu22  1  0.37819257  0.37819256  0.59669119  1
  Cu  Cu23  1  0.37863477  0.71499521  0.58998877  1
  Cu  Cu24  1  0.71502633  0.04310082  0.58999204  1
  Cu  Cu25  1  0.71499521  0.37863488  0.58998877  1
  Cu  Cu26  1  0.71218842  0.71218848  0.59056454  1
  N  N27  1  0.36876442  0.36876442  0.68249872  1
  N  N28  1  0.36336714  0.36336714  0.73190831  1
