# generated using pymatgen
data_Co27CO2
_symmetry_space_group_name_H-M   'P 1'
_cell_length_a   7.20020400
_cell_length_b   7.22369791
_cell_length_c   21.95056060
_cell_angle_alpha   90.70782154
_cell_angle_beta   92.74453361
_cell_angle_gamma   114.11633735
_symmetry_Int_Tables_number   1
_chemical_formula_structural   Co27CO2
_chemical_formula_sum   'Co27 C1 O2'
_cell_volume   1040.21162622
_cell_formula_units_Z   1
loop_
 _symmetry_equiv_pos_site_id
 _symmetry_equiv_pos_as_xyz
  1  'x, y, z'
loop_
 _atom_site_type_symbol
 _atom_site_label
 _atom_site_symmetry_multiplicity
 _atom_site_fract_x
 _atom_site_fract_y
 _atom_site_fract_z
 _atom_site_occupancy
  Co  Co0  1  0.28787700  0.18181700  0.40909100  1
  Co  Co1  1  0.28787700  0.51515000  0.40909100  1
  Co  Co2  1  0.28787700  0.84848400  0.40909100  1
  Co  Co3  1  0.62121100  0.18181700  0.40909100  1
  Co  Co4  1  0.62121100  0.51515000  0.40909100  1
  Co  Co5  1  0.62121100  0.84848400  0.40909100  1
  Co  Co6  1  0.95454400  0.18181700  0.40909100  1
  Co  Co7  1  0.95454400  0.51515000  0.40909100  1
  Co  Co8  1  0.95454400  0.84848400  0.40909100  1
  Co  Co9  1  0.18486200  0.98388800  0.49989800  1
  Co  Co10  1  0.18251700  0.31587800  0.49964500  1
  Co  Co11  1  0.18474300  0.65098200  0.49965500  1
  Co  Co12  1  0.51698300  0.98274100  0.49989600  1
  Co  Co13  1  0.51504900  0.31464400  0.49975700  1
  Co  Co14  1  0.51666200  0.64907600  0.49976100  1
  Co  Co15  1  0.85028800  0.98183900  0.49988500  1
  Co  Co16  1  0.84734200  0.31342900  0.49967500  1
  Co  Co17  1  0.84906700  0.64734800  0.49978800  1
  Co  Co18  1  0.07552800  0.11678935  0.58919106  1
  Co  Co19  1  0.07783717  0.45187752  0.59018404  1
  Co  Co20  1  0.07628932  0.78304262  0.59023962  1
  Co  Co21  1  0.41545564  0.12470006  0.60094364  1
  Co  Co22  1  0.41528918  0.46580736  0.59101843  1
  Co  Co23  1  0.41276887  0.79388577  0.58948319  1
  Co  Co24  1  0.74633946  0.12200345  0.59019024  1
  Co  Co25  1  0.74841852  0.45610458  0.58988129  1
  Co  Co26  1  0.74764739  0.78991541  0.58982272  1
  C  C27  1  0.42525599  0.42589718  0.67641666  1
  O  O28  1  0.44164591  0.54892574  0.71849939  1
  O  O29  1  0.41173961  0.24089322  0.68455680  1
