# generated using pymatgen
data_Cu27CO2
_symmetry_space_group_name_H-M   'P 1'
_cell_length_a   7.56931200
_cell_length_b   7.57163409
_cell_length_c   24.95416000
_cell_angle_alpha   89.99856981
_cell_angle_beta   89.99866020
_cell_angle_gamma   89.99125989
_symmetry_Int_Tables_number   1
_chemical_formula_structural   Cu27CO2
_chemical_formula_sum   'Cu27 C1 O2'
_cell_volume   1430.17431756
_cell_formula_units_Z   1
loop_
 _symmetry_equiv_pos_site_id
 _symmetry_equiv_pos_as_xyz
  1  'x, y, z'
loop_
 _atom_site_type_symbol
 _atom_site_label
 _atom_site_symmetry_multiplicity
 _atom_site_fract_x
 _atom_site_fract_y
 _atom_site_fract_z
 _atom_site_occupancy
  Cu  Cu0  1  0.99864513  0.99878129  0.53587420  1
  Cu  Cu1  1  0.99925464  0.33329887  0.53595546  1
  Cu  Cu2  1  0.99864045  0.66775804  0.53587643  1
  Cu  Cu3  1  0.33333776  0.99820722  0.53648941  1
  Cu  Cu4  1  0.33328058  0.33331300  0.53889585  1
  Cu  Cu5  1  0.33333058  0.66836535  0.53648756  1
  Cu  Cu6  1  0.66796652  0.99888162  0.53587519  1
  Cu  Cu7  1  0.66725523  0.33339127  0.53595610  1
  Cu  Cu8  1  0.66796072  0.66785999  0.53587879  1
  Cu  Cu9  1  0.00000100  0.00000000  0.39285700  1
  Cu  Cu10  1  0.00000100  0.33333300  0.39285700  1
  Cu  Cu11  1  0.00000100  0.66666700  0.39285700  1
  Cu  Cu12  1  0.33333400  0.00000000  0.39285700  1
  Cu  Cu13  1  0.33333400  0.33333300  0.39285700  1
  Cu  Cu14  1  0.33333400  0.66666700  0.39285700  1
  Cu  Cu15  1  0.66666700  0.00000000  0.39285700  1
  Cu  Cu16  1  0.66666700  0.33333300  0.39285700  1
  Cu  Cu17  1  0.66666700  0.66666700  0.39285700  1
  Cu  Cu18  1  0.16666500  0.16666400  0.46428800  1
  Cu  Cu19  1  0.16666400  0.50000000  0.46428800  1
  Cu  Cu20  1  0.16666500  0.83333500  0.46428800  1
  Cu  Cu21  1  0.50000100  0.16666300  0.46428800  1
  Cu  Cu22  1  0.50000100  0.50000000  0.46428800  1
  Cu  Cu23  1  0.50000100  0.83333600  0.46428800  1
  Cu  Cu24  1  0.83333600  0.16666400  0.46428800  1
  Cu  Cu25  1  0.83333700  0.50000000  0.46428800  1
  Cu  Cu26  1  0.83333600  0.83333500  0.46428800  1
  C  C27  1  0.33326360  0.33328546  0.62011948  1
  O  O28  1  0.33322254  0.48424456  0.63967818  1
  O  O29  1  0.33323055  0.18229561  0.63966574  1
