# generated using pymatgen
data_Co27HCO
_symmetry_space_group_name_H-M   'P 1'
_cell_length_a   7.20020400
_cell_length_b   7.22369791
_cell_length_c   21.95056060
_cell_angle_alpha   90.70782154
_cell_angle_beta   92.74453361
_cell_angle_gamma   114.11633735
_symmetry_Int_Tables_number   1
_chemical_formula_structural   Co27HCO
_chemical_formula_sum   'Co27 H1 C1 O1'
_cell_volume   1040.21162622
_cell_formula_units_Z   1
loop_
 _symmetry_equiv_pos_site_id
 _symmetry_equiv_pos_as_xyz
  1  'x, y, z'
loop_
 _atom_site_type_symbol
 _atom_site_label
 _atom_site_symmetry_multiplicity
 _atom_site_fract_x
 _atom_site_fract_y
 _atom_site_fract_z
 _atom_site_occupancy
  Co  Co0  1  0.28787700  0.18181700  0.40909100  1
  Co  Co1  1  0.28787700  0.51515000  0.40909100  1
  Co  Co2  1  0.28787700  0.84848400  0.40909100  1
  Co  Co3  1  0.62121100  0.18181700  0.40909100  1
  Co  Co4  1  0.62121100  0.51515000  0.40909100  1
  Co  Co5  1  0.62121100  0.84848400  0.40909100  1
  Co  Co6  1  0.95454400  0.18181700  0.40909100  1
  Co  Co7  1  0.95454400  0.51515000  0.40909100  1
  Co  Co8  1  0.95454400  0.84848400  0.40909100  1
  Co  Co9  1  0.18599600  0.97999300  0.49700200  1
  Co  Co10  1  0.18617600  0.31279600  0.49715500  1
  Co  Co11  1  0.18497900  0.64569600  0.49700600  1
  Co  Co12  1  0.51840700  0.97839700  0.49707800  1
  Co  Co13  1  0.51881700  0.31157400  0.49718100  1
  Co  Co14  1  0.51736300  0.64402700  0.49707800  1
  Co  Co15  1  0.85233000  0.97945600  0.49691600  1
  Co  Co16  1  0.85273300  0.31276800  0.49702200  1
  Co  Co17  1  0.85143700  0.64525400  0.49699500  1
  Co  Co18  1  0.07611833  0.11438676  0.58801257  1
  Co  Co19  1  0.07949423  0.45111377  0.58723705  1
  Co  Co20  1  0.07870379  0.78441608  0.58728081  1
  Co  Co21  1  0.40714723  0.11210337  0.58749065  1
  Co  Co22  1  0.40871248  0.44963688  0.59214775  1
  Co  Co23  1  0.40932523  0.78221314  0.58834387  1
  Co  Co24  1  0.74382697  0.11408079  0.58714338  1
  Co  Co25  1  0.75346843  0.45073900  0.59468715  1
  Co  Co26  1  0.74427717  0.78453517  0.58659783  1
  C  C27  1  0.50991154  0.45984571  0.67080259  1
  H  H28  1  0.41767736  0.46039235  0.70993015  1
  O  O29  1  0.68666365  0.46808500  0.68289898  1
