# generated using pymatgen
data_Cu27HCO
_symmetry_space_group_name_H-M   'P 1'
_cell_length_a   7.56629665
_cell_length_b   7.56629665
_cell_length_c   22.70406582
_cell_angle_alpha   86.87439516
_cell_angle_beta   86.87439516
_cell_angle_gamma   60.02635040
_symmetry_Int_Tables_number   1
_chemical_formula_structural   Cu27HCO
_chemical_formula_sum   'Cu27 H1 C1 O1'
_cell_volume   1123.70819012
_cell_formula_units_Z   1
loop_
 _symmetry_equiv_pos_site_id
 _symmetry_equiv_pos_as_xyz
  1  'x, y, z'
loop_
 _atom_site_type_symbol
 _atom_site_label
 _atom_site_symmetry_multiplicity
 _atom_site_fract_x
 _atom_site_fract_y
 _atom_site_fract_z
 _atom_site_occupancy
  Cu  Cu0  1  0.28787900  0.28787900  0.40909100  1
  Cu  Cu1  1  0.28787900  0.62121200  0.40909100  1
  Cu  Cu2  1  0.28787900  0.95454600  0.40909100  1
  Cu  Cu3  1  0.62121200  0.28787900  0.40909100  1
  Cu  Cu4  1  0.62121200  0.62121200  0.40909100  1
  Cu  Cu5  1  0.62121200  0.95454500  0.40909100  1
  Cu  Cu6  1  0.95454600  0.28787900  0.40909100  1
  Cu  Cu7  1  0.95454500  0.62121200  0.40909100  1
  Cu  Cu8  1  0.95454500  0.95454500  0.40909100  1
  Cu  Cu9  1  0.16906670  0.17189412  0.50088368  1
  Cu  Cu10  1  0.16891475  0.50345680  0.50025693  1
  Cu  Cu11  1  0.16881192  0.83760880  0.50101393  1
  Cu  Cu12  1  0.50078990  0.17159380  0.50055075  1
  Cu  Cu13  1  0.50073776  0.50458569  0.50111167  1
  Cu  Cu14  1  0.49989031  0.84109405  0.50175471  1
  Cu  Cu15  1  0.83463081  0.17209251  0.50090913  1
  Cu  Cu16  1  0.83629057  0.50411457  0.50118615  1
  Cu  Cu17  1  0.83445128  0.83707271  0.50096387  1
  Cu  Cu18  1  0.04712699  0.05201811  0.59202993  1
  Cu  Cu19  1  0.03862700  0.39130104  0.59512874  1
  Cu  Cu20  1  0.04730521  0.72158457  0.59202083  1
  Cu  Cu21  1  0.38286264  0.05149246  0.59756527  1
  Cu  Cu22  1  0.38715416  0.38933266  0.59424054  1
  Cu  Cu23  1  0.38178044  0.72173754  0.59234952  1
  Cu  Cu24  1  0.71817387  0.05158352  0.59189441  1
  Cu  Cu25  1  0.71448148  0.38790725  0.59189770  1
  Cu  Cu26  1  0.71246762  0.72169965  0.59238596  1
  C  C27  1  0.25494569  0.28509420  0.64930443  1
  H  H28  1  0.37353527  0.21568424  0.72667940  1
  O  O29  1  0.23989938  0.29422565  0.70757417  1
