# generated using pymatgen
data_Cu27HO2
_symmetry_space_group_name_H-M   'P 1'
_cell_length_a   7.56629665
_cell_length_b   7.56629665
_cell_length_c   22.70406582
_cell_angle_alpha   86.87439516
_cell_angle_beta   86.87439516
_cell_angle_gamma   60.02635040
_symmetry_Int_Tables_number   1
_chemical_formula_structural   Cu27HO2
_chemical_formula_sum   'Cu27 H1 O2'
_cell_volume   1123.70819012
_cell_formula_units_Z   1
loop_
 _symmetry_equiv_pos_site_id
 _symmetry_equiv_pos_as_xyz
  1  'x, y, z'
loop_
 _atom_site_type_symbol
 _atom_site_label
 _atom_site_symmetry_multiplicity
 _atom_site_fract_x
 _atom_site_fract_y
 _atom_site_fract_z
 _atom_site_occupancy
  Cu  Cu0  1  0.28787900  0.28787900  0.40909100  1
  Cu  Cu1  1  0.28787900  0.62121200  0.40909100  1
  Cu  Cu2  1  0.28787900  0.95454600  0.40909100  1
  Cu  Cu3  1  0.62121200  0.28787900  0.40909100  1
  Cu  Cu4  1  0.62121200  0.62121200  0.40909100  1
  Cu  Cu5  1  0.62121200  0.95454500  0.40909100  1
  Cu  Cu6  1  0.95454600  0.28787900  0.40909100  1
  Cu  Cu7  1  0.95454500  0.62121200  0.40909100  1
  Cu  Cu8  1  0.95454500  0.95454500  0.40909100  1
  Cu  Cu9  1  0.16516851  0.16963331  0.50107678  1
  Cu  Cu10  1  0.16730925  0.50178125  0.50194430  1
  Cu  Cu11  1  0.16451097  0.83671432  0.50038775  1
  Cu  Cu12  1  0.49659800  0.17189118  0.50237866  1
  Cu  Cu13  1  0.49646252  0.50159776  0.50175969  1
  Cu  Cu14  1  0.49892429  0.83656397  0.50033007  1
  Cu  Cu15  1  0.83085887  0.16951440  0.50106545  1
  Cu  Cu16  1  0.83174218  0.50245359  0.50059283  1
  Cu  Cu17  1  0.83040074  0.83661984  0.50041812  1
  Cu  Cu18  1  0.04153842  0.05039046  0.59284680  1
  Cu  Cu19  1  0.03982759  0.38376508  0.59266497  1
  Cu  Cu20  1  0.03827317  0.72158512  0.59166644  1
  Cu  Cu21  1  0.37475150  0.04908077  0.59273630  1
  Cu  Cu22  1  0.36908161  0.39365609  0.59840405  1
  Cu  Cu23  1  0.37415768  0.72163226  0.59141755  1
  Cu  Cu24  1  0.70984872  0.04892934  0.59277590  1
  Cu  Cu25  1  0.70997971  0.38383714  0.59248469  1
  Cu  Cu26  1  0.70807270  0.71769922  0.59201313  1
  O  O27  1  0.39904623  0.30738570  0.67944230  1
  O  O28  1  0.33701802  0.41286995  0.73223221  1
  H  H29  1  0.27247805  0.56086688  0.72195296  1
