# generated using pymatgen
data_Cu27H
_symmetry_space_group_name_H-M   'P 1'
_cell_length_a   7.56629665
_cell_length_b   7.56629665
_cell_length_c   22.70406582
_cell_angle_alpha   86.87439516
_cell_angle_beta   86.87439516
_cell_angle_gamma   60.02635040
_symmetry_Int_Tables_number   1
_chemical_formula_structural   Cu27H
_chemical_formula_sum   'Cu27 H1'
_cell_volume   1123.70819012
_cell_formula_units_Z   1
loop_
 _symmetry_equiv_pos_site_id
 _symmetry_equiv_pos_as_xyz
  1  'x, y, z'
loop_
 _atom_site_type_symbol
 _atom_site_label
 _atom_site_symmetry_multiplicity
 _atom_site_fract_x
 _atom_site_fract_y
 _atom_site_fract_z
 _atom_site_occupancy
  Cu  Cu0  1  0.28787900  0.28787900  0.40909100  1
  Cu  Cu1  1  0.28787900  0.62121200  0.40909100  1
  Cu  Cu2  1  0.28787900  0.95454600  0.40909100  1
  Cu  Cu3  1  0.62121200  0.28787900  0.40909100  1
  Cu  Cu4  1  0.62121200  0.62121200  0.40909100  1
  Cu  Cu5  1  0.62121200  0.95454500  0.40909100  1
  Cu  Cu6  1  0.95454600  0.28787900  0.40909100  1
  Cu  Cu7  1  0.95454500  0.62121200  0.40909100  1
  Cu  Cu8  1  0.95454500  0.95454500  0.40909100  1
  Cu  Cu9  1  0.16685065  0.16685415  0.50155134  1
  Cu  Cu10  1  0.16772031  0.49931422  0.50177632  1
  Cu  Cu11  1  0.16684450  0.83278540  0.50155378  1
  Cu  Cu12  1  0.49931054  0.16771878  0.50177639  1
  Cu  Cu13  1  0.49926273  0.49926023  0.50179085  1
  Cu  Cu14  1  0.50018936  0.83316884  0.50116223  1
  Cu  Cu15  1  0.83278137  0.16684621  0.50155416  1
  Cu  Cu16  1  0.83317141  0.50018986  0.50116273  1
  Cu  Cu17  1  0.83320669  0.83320858  0.50116331  1
  Cu  Cu18  1  0.04542584  0.04542134  0.59372167  1
  Cu  Cu19  1  0.04386029  0.37864168  0.59343570  1
  Cu  Cu20  1  0.04388480  0.71382346  0.59343295  1
  Cu  Cu21  1  0.37864608  0.04385296  0.59343511  1
  Cu  Cu22  1  0.37851947  0.37851391  0.59556957  1
  Cu  Cu23  1  0.37863510  0.71378509  0.59344084  1
  Cu  Cu24  1  0.71382602  0.04388173  0.59343341  1
  Cu  Cu25  1  0.71379237  0.37863021  0.59344169  1
  Cu  Cu26  1  0.71211252  0.71210828  0.59333752  1
  H  H27  1  0.37081682  0.37081999  0.66322876  1
