# generated using pymatgen
data_Cu27CO
_symmetry_space_group_name_H-M   'P 1'
_cell_length_a   7.56629665
_cell_length_b   7.56629665
_cell_length_c   22.70406582
_cell_angle_alpha   86.87439516
_cell_angle_beta   86.87439516
_cell_angle_gamma   60.02635040
_symmetry_Int_Tables_number   1
_chemical_formula_structural   Cu27CO
_chemical_formula_sum   'Cu27 C1 O1'
_cell_volume   1123.70819012
_cell_formula_units_Z   1
loop_
 _symmetry_equiv_pos_site_id
 _symmetry_equiv_pos_as_xyz
  1  'x, y, z'
loop_
 _atom_site_type_symbol
 _atom_site_label
 _atom_site_symmetry_multiplicity
 _atom_site_fract_x
 _atom_site_fract_y
 _atom_site_fract_z
 _atom_site_occupancy
  Cu  Cu0  1  0.28787900  0.28787900  0.40909100  1
  Cu  Cu1  1  0.28787900  0.62121200  0.40909100  1
  Cu  Cu2  1  0.28787900  0.95454600  0.40909100  1
  Cu  Cu3  1  0.62121200  0.28787900  0.40909100  1
  Cu  Cu4  1  0.62121200  0.62121200  0.40909100  1
  Cu  Cu5  1  0.62121200  0.95454500  0.40909100  1
  Cu  Cu6  1  0.95454600  0.28787900  0.40909100  1
  Cu  Cu7  1  0.95454500  0.62121200  0.40909100  1
  Cu  Cu8  1  0.95454500  0.95454500  0.40909100  1
  Cu  Cu9  1  0.16674328  0.16685078  0.50151783  1
  Cu  Cu10  1  0.16765209  0.49940326  0.50186243  1
  Cu  Cu11  1  0.16672934  0.83321022  0.50148917  1
  Cu  Cu12  1  0.49936648  0.16767170  0.50183366  1
  Cu  Cu13  1  0.49926674  0.49932153  0.50192384  1
  Cu  Cu14  1  0.50012981  0.83339690  0.50063147  1
  Cu  Cu15  1  0.83308860  0.16684204  0.50149688  1
  Cu  Cu16  1  0.83330995  0.50024077  0.50061955  1
  Cu  Cu17  1  0.83337850  0.83345431  0.50064703  1
  Cu  Cu18  1  0.04545225  0.04567253  0.59394863  1
  Cu  Cu19  1  0.04189061  0.37891836  0.59299011  1
  Cu  Cu20  1  0.04216579  0.71617459  0.59296590  1
  Cu  Cu21  1  0.37865452  0.04205509  0.59299666  1
  Cu  Cu22  1  0.37880278  0.37916007  0.59419252  1
  Cu  Cu23  1  0.37856042  0.71591242  0.59296124  1
  Cu  Cu24  1  0.71608356  0.04224828  0.59297557  1
  Cu  Cu25  1  0.71574973  0.37882858  0.59296332  1
  Cu  Cu26  1  0.71219714  0.71240157  0.59282323  1
  O  O27  1  0.35968406  0.35049792  0.72568429  1
  C  C28  1  0.36700708  0.36077553  0.67417599  1
