# generated using pymatgen
data_Cu27HCO2
_symmetry_space_group_name_H-M   'P 1'
_cell_length_a   7.56629665
_cell_length_b   7.56629665
_cell_length_c   22.70406582
_cell_angle_alpha   86.87439516
_cell_angle_beta   86.87439516
_cell_angle_gamma   60.02635040
_symmetry_Int_Tables_number   1
_chemical_formula_structural   Cu27HCO2
_chemical_formula_sum   'Cu27 H1 C1 O2'
_cell_volume   1123.70819012
_cell_formula_units_Z   1
loop_
 _symmetry_equiv_pos_site_id
 _symmetry_equiv_pos_as_xyz
  1  'x, y, z'
loop_
 _atom_site_type_symbol
 _atom_site_label
 _atom_site_symmetry_multiplicity
 _atom_site_fract_x
 _atom_site_fract_y
 _atom_site_fract_z
 _atom_site_occupancy
  Cu  Cu0  1  0.28787900  0.28787900  0.40909100  1
  Cu  Cu1  1  0.28787900  0.62121200  0.40909100  1
  Cu  Cu2  1  0.28787900  0.95454600  0.40909100  1
  Cu  Cu3  1  0.62121200  0.28787900  0.40909100  1
  Cu  Cu4  1  0.62121200  0.62121200  0.40909100  1
  Cu  Cu5  1  0.62121200  0.95454500  0.40909100  1
  Cu  Cu6  1  0.95454600  0.28787900  0.40909100  1
  Cu  Cu7  1  0.95454500  0.62121200  0.40909100  1
  Cu  Cu8  1  0.95454500  0.95454500  0.40909100  1
  Cu  Cu9  1  0.16778791  0.16543706  0.50149568  1
  Cu  Cu10  1  0.16944714  0.49752684  0.50333245  1
  Cu  Cu11  1  0.16760852  0.83147544  0.50119031  1
  Cu  Cu12  1  0.49862425  0.16835395  0.50446179  1
  Cu  Cu13  1  0.49901107  0.49751937  0.50334961  1
  Cu  Cu14  1  0.50097100  0.83272212  0.50080186  1
  Cu  Cu15  1  0.83337422  0.16544358  0.50150476  1
  Cu  Cu16  1  0.83379248  0.49927945  0.50071330  1
  Cu  Cu17  1  0.83313369  0.83273224  0.50080207  1
  Cu  Cu18  1  0.04645756  0.04345227  0.59389759  1
  Cu  Cu19  1  0.04441606  0.37613092  0.59300784  1
  Cu  Cu20  1  0.04264967  0.71396422  0.59246783  1
  Cu  Cu21  1  0.37948111  0.04144624  0.59444561  1
  Cu  Cu22  1  0.38005291  0.37347839  0.60219258  1
  Cu  Cu23  1  0.38015694  0.71393758  0.59247371  1
  Cu  Cu24  1  0.71522086  0.04144853  0.59444923  1
  Cu  Cu25  1  0.71608074  0.37611312  0.59303909  1
  Cu  Cu26  1  0.71341317  0.70958275  0.59353518  1
  C  C27  1  0.36079476  0.36593548  0.74033493  1
  O  O28  1  0.45386381  0.17668937  0.74961595  1
  O  O29  1  0.31965336  0.46471958  0.69083752  1
  H  H30  1  0.30464284  0.46506080  0.77993405  1
