# generated using pymatgen
data_Cu27CO
_symmetry_space_group_name_H-M   'P 1'
_cell_length_a   7.56931200
_cell_length_b   7.57163409
_cell_length_c   24.95416000
_cell_angle_alpha   89.99856981
_cell_angle_beta   89.99866020
_cell_angle_gamma   89.99125989
_symmetry_Int_Tables_number   1
_chemical_formula_structural   Cu27CO
_chemical_formula_sum   'Cu27 C1 O1'
_cell_volume   1430.17431756
_cell_formula_units_Z   1
loop_
 _symmetry_equiv_pos_site_id
 _symmetry_equiv_pos_as_xyz
  1  'x, y, z'
loop_
 _atom_site_type_symbol
 _atom_site_label
 _atom_site_symmetry_multiplicity
 _atom_site_fract_x
 _atom_site_fract_y
 _atom_site_fract_z
 _atom_site_occupancy
  Cu  Cu0  1  0.99940974  0.99940243  0.53566655  1
  Cu  Cu1  1  0.99772172  0.33337447  0.53582865  1
  Cu  Cu2  1  0.99947785  0.66716480  0.53569595  1
  Cu  Cu3  1  0.33337607  0.99770533  0.53583038  1
  Cu  Cu4  1  0.33390089  0.33389902  0.53865703  1
  Cu  Cu5  1  0.33338544  0.66936902  0.53581032  1
  Cu  Cu6  1  0.66716091  0.99947083  0.53569600  1
  Cu  Cu7  1  0.66936029  0.33338365  0.53580833  1
  Cu  Cu8  1  0.66710167  0.66710552  0.53572573  1
  Cu  Cu9  1  0.00000100  0.00000000  0.39285700  1
  Cu  Cu10  1  0.00000100  0.33333300  0.39285700  1
  Cu  Cu11  1  0.00000100  0.66666700  0.39285700  1
  Cu  Cu12  1  0.33333400  0.00000000  0.39285700  1
  Cu  Cu13  1  0.33333400  0.33333300  0.39285700  1
  Cu  Cu14  1  0.33333400  0.66666700  0.39285700  1
  Cu  Cu15  1  0.66666700  0.00000000  0.39285700  1
  Cu  Cu16  1  0.66666700  0.33333300  0.39285700  1
  Cu  Cu17  1  0.66666700  0.66666700  0.39285700  1
  Cu  Cu18  1  0.16666500  0.16666400  0.46428800  1
  Cu  Cu19  1  0.16666400  0.50000000  0.46428800  1
  Cu  Cu20  1  0.16666500  0.83333500  0.46428800  1
  Cu  Cu21  1  0.50000100  0.16666300  0.46428800  1
  Cu  Cu22  1  0.50000100  0.50000000  0.46428800  1
  Cu  Cu23  1  0.50000100  0.83333600  0.46428800  1
  Cu  Cu24  1  0.83333600  0.16666400  0.46428800  1
  Cu  Cu25  1  0.83333700  0.50000000  0.46428800  1
  Cu  Cu26  1  0.83333600  0.83333500  0.46428800  1
  O  O27  1  0.32089472  0.32089163  0.65830931  1
  C  C28  1  0.32599328  0.32599405  0.61195465  1
