# generated using pymatgen
data_Co27HN2
_symmetry_space_group_name_H-M   'P 1'
_cell_length_a   7.20020400
_cell_length_b   7.22369791
_cell_length_c   21.95056060
_cell_angle_alpha   90.70782154
_cell_angle_beta   92.74453361
_cell_angle_gamma   114.11633735
_symmetry_Int_Tables_number   1
_chemical_formula_structural   Co27HN2
_chemical_formula_sum   'Co27 H1 N2'
_cell_volume   1040.21162622
_cell_formula_units_Z   1
loop_
 _symmetry_equiv_pos_site_id
 _symmetry_equiv_pos_as_xyz
  1  'x, y, z'
loop_
 _atom_site_type_symbol
 _atom_site_label
 _atom_site_symmetry_multiplicity
 _atom_site_fract_x
 _atom_site_fract_y
 _atom_site_fract_z
 _atom_site_occupancy
  Co  Co0  1  0.28787700  0.18181700  0.40909100  1
  Co  Co1  1  0.28787700  0.51515000  0.40909100  1
  Co  Co2  1  0.28787700  0.84848400  0.40909100  1
  Co  Co3  1  0.62121100  0.18181700  0.40909100  1
  Co  Co4  1  0.62121100  0.51515000  0.40909100  1
  Co  Co5  1  0.62121100  0.84848400  0.40909100  1
  Co  Co6  1  0.95454400  0.18181700  0.40909100  1
  Co  Co7  1  0.95454400  0.51515000  0.40909100  1
  Co  Co8  1  0.95454400  0.84848400  0.40909100  1
  Co  Co9  1  0.18486200  0.98388800  0.49989800  1
  Co  Co10  1  0.18251700  0.31587800  0.49964500  1
  Co  Co11  1  0.18474300  0.65098200  0.49965500  1
  Co  Co12  1  0.51698300  0.98274100  0.49989600  1
  Co  Co13  1  0.51504900  0.31464400  0.49975700  1
  Co  Co14  1  0.51666200  0.64907600  0.49976100  1
  Co  Co15  1  0.85028800  0.98183900  0.49988500  1
  Co  Co16  1  0.84734200  0.31342900  0.49967500  1
  Co  Co17  1  0.84906700  0.64734800  0.49978800  1
  Co  Co18  1  0.07630678  0.10783464  0.59098205  1
  Co  Co19  1  0.07361852  0.44144761  0.59008441  1
  Co  Co20  1  0.07804527  0.77765387  0.59115878  1
  Co  Co21  1  0.41791808  0.11369027  0.59054303  1
  Co  Co22  1  0.41889221  0.45138483  0.60463781  1
  Co  Co23  1  0.41971042  0.79087014  0.58975305  1
  Co  Co24  1  0.74919388  0.11708105  0.58842274  1
  Co  Co25  1  0.75175673  0.45193786  0.58848118  1
  Co  Co26  1  0.75220319  0.78637747  0.59020510  1
  N  N27  1  0.42777811  0.46342241  0.68003295  1
  N  N28  1  0.42184275  0.47442402  0.73441554  1
  H  H29  1  0.53863049  0.46512224  0.76254563  1
