# generated using pymatgen
data_Cu27HN2
_symmetry_space_group_name_H-M   'P 1'
_cell_length_a   7.56629665
_cell_length_b   7.56629665
_cell_length_c   22.70406582
_cell_angle_alpha   86.87439516
_cell_angle_beta   86.87439516
_cell_angle_gamma   60.02635040
_symmetry_Int_Tables_number   1
_chemical_formula_structural   Cu27HN2
_chemical_formula_sum   'Cu27 H1 N2'
_cell_volume   1123.70819012
_cell_formula_units_Z   1
loop_
 _symmetry_equiv_pos_site_id
 _symmetry_equiv_pos_as_xyz
  1  'x, y, z'
loop_
 _atom_site_type_symbol
 _atom_site_label
 _atom_site_symmetry_multiplicity
 _atom_site_fract_x
 _atom_site_fract_y
 _atom_site_fract_z
 _atom_site_occupancy
  Cu  Cu0  1  0.28787900  0.28787900  0.40909100  1
  Cu  Cu1  1  0.28787900  0.62121200  0.40909100  1
  Cu  Cu2  1  0.28787900  0.95454600  0.40909100  1
  Cu  Cu3  1  0.62121200  0.28787900  0.40909100  1
  Cu  Cu4  1  0.62121200  0.62121200  0.40909100  1
  Cu  Cu5  1  0.62121200  0.95454500  0.40909100  1
  Cu  Cu6  1  0.95454600  0.28787900  0.40909100  1
  Cu  Cu7  1  0.95454500  0.62121200  0.40909100  1
  Cu  Cu8  1  0.95454500  0.95454500  0.40909100  1
  Cu  Cu9  1  0.16663372  0.16690038  0.50080109  1
  Cu  Cu10  1  0.16893120  0.49906630  0.50147253  1
  Cu  Cu11  1  0.16666938  0.83338483  0.50078742  1
  Cu  Cu12  1  0.49925319  0.16818511  0.50151018  1
  Cu  Cu13  1  0.49862586  0.49890482  0.50161232  1
  Cu  Cu14  1  0.50032324  0.83320442  0.50018754  1
  Cu  Cu15  1  0.83299074  0.16696551  0.50088126  1
  Cu  Cu16  1  0.83334688  0.49992582  0.50050110  1
  Cu  Cu17  1  0.83340489  0.83307642  0.50019937  1
  Cu  Cu18  1  0.04548793  0.04555867  0.59276422  1
  Cu  Cu19  1  0.04276791  0.37881457  0.59207883  1
  Cu  Cu20  1  0.04280709  0.71617550  0.59150200  1
  Cu  Cu21  1  0.37927721  0.04230742  0.59155003  1
  Cu  Cu22  1  0.37739051  0.37877623  0.59581702  1
  Cu  Cu23  1  0.37800702  0.71652243  0.59159634  1
  Cu  Cu24  1  0.71565245  0.04192513  0.59156593  1
  Cu  Cu25  1  0.71529510  0.37879748  0.59241302  1
  Cu  Cu26  1  0.71221977  0.71245233  0.59192906  1
  N  N27  1  0.37620619  0.36970659  0.67625999  1
  N  N28  1  0.35116637  0.36278156  0.72822042  1
  H  H29  1  0.45649964  0.36134022  0.75691768  1
