# generated using pymatgen
data_Cu27HO2
_symmetry_space_group_name_H-M   'P 1'
_cell_length_a   7.56629665
_cell_length_b   7.56629665
_cell_length_c   22.70406582
_cell_angle_alpha   86.87439516
_cell_angle_beta   86.87439516
_cell_angle_gamma   60.02635040
_symmetry_Int_Tables_number   1
_chemical_formula_structural   Cu27HO2
_chemical_formula_sum   'Cu27 H1 O2'
_cell_volume   1123.70819012
_cell_formula_units_Z   1
loop_
 _symmetry_equiv_pos_site_id
 _symmetry_equiv_pos_as_xyz
  1  'x, y, z'
loop_
 _atom_site_type_symbol
 _atom_site_label
 _atom_site_symmetry_multiplicity
 _atom_site_fract_x
 _atom_site_fract_y
 _atom_site_fract_z
 _atom_site_occupancy
  Cu  Cu0  1  0.28787900  0.28787900  0.40909100  1
  Cu  Cu1  1  0.28787900  0.62121200  0.40909100  1
  Cu  Cu2  1  0.28787900  0.95454600  0.40909100  1
  Cu  Cu3  1  0.62121200  0.28787900  0.40909100  1
  Cu  Cu4  1  0.62121200  0.62121200  0.40909100  1
  Cu  Cu5  1  0.62121200  0.95454500  0.40909100  1
  Cu  Cu6  1  0.95454600  0.28787900  0.40909100  1
  Cu  Cu7  1  0.95454500  0.62121200  0.40909100  1
  Cu  Cu8  1  0.95454500  0.95454500  0.40909100  1
  Cu  Cu9  1  0.16562270  0.16907098  0.50137657  1
  Cu  Cu10  1  0.16834371  0.50028129  0.50292286  1
  Cu  Cu11  1  0.16555094  0.83539644  0.50133882  1
  Cu  Cu12  1  0.49814324  0.16975946  0.50264632  1
  Cu  Cu13  1  0.49736500  0.50023269  0.50292728  1
  Cu  Cu14  1  0.49928590  0.83463322  0.50105114  1
  Cu  Cu15  1  0.83177298  0.16904416  0.50137222  1
  Cu  Cu16  1  0.83207757  0.50218027  0.50108573  1
  Cu  Cu17  1  0.83282158  0.83441638  0.50101967  1
  Cu  Cu18  1  0.04397333  0.04811790  0.59364040  1
  Cu  Cu19  1  0.04124995  0.38205965  0.59318703  1
  Cu  Cu20  1  0.04285656  0.71720542  0.59333987  1
  Cu  Cu21  1  0.37692733  0.04527789  0.59274405  1
  Cu  Cu22  1  0.37604671  0.38102693  0.60004723  1
  Cu  Cu23  1  0.37599676  0.71744494  0.59326983  1
  Cu  Cu24  1  0.71462267  0.04485201  0.59255370  1
  Cu  Cu25  1  0.71256956  0.38194397  0.59328619  1
  Cu  Cu26  1  0.71044197  0.71508496  0.59318297  1
  O  O27  1  0.41182844  0.29206913  0.68320610  1
  O  O28  1  0.31339418  0.45433396  0.72875724  1
  H  H29  1  0.26747867  0.58184088  0.70426861  1
