# generated using pymatgen
data_Cu27H
_symmetry_space_group_name_H-M   'P 1'
_cell_length_a   7.56629665
_cell_length_b   7.56629665
_cell_length_c   22.70406582
_cell_angle_alpha   86.87439516
_cell_angle_beta   86.87439516
_cell_angle_gamma   60.02635040
_symmetry_Int_Tables_number   1
_chemical_formula_structural   Cu27H
_chemical_formula_sum   'Cu27 H1'
_cell_volume   1123.70819012
_cell_formula_units_Z   1
loop_
 _symmetry_equiv_pos_site_id
 _symmetry_equiv_pos_as_xyz
  1  'x, y, z'
loop_
 _atom_site_type_symbol
 _atom_site_label
 _atom_site_symmetry_multiplicity
 _atom_site_fract_x
 _atom_site_fract_y
 _atom_site_fract_z
 _atom_site_occupancy
  Cu  Cu0  1  0.28787900  0.28787900  0.40909100  1
  Cu  Cu1  1  0.28787900  0.62121200  0.40909100  1
  Cu  Cu2  1  0.28787900  0.95454600  0.40909100  1
  Cu  Cu3  1  0.62121200  0.28787900  0.40909100  1
  Cu  Cu4  1  0.62121200  0.62121200  0.40909100  1
  Cu  Cu5  1  0.62121200  0.95454500  0.40909100  1
  Cu  Cu6  1  0.95454600  0.28787900  0.40909100  1
  Cu  Cu7  1  0.95454500  0.62121200  0.40909100  1
  Cu  Cu8  1  0.95454500  0.95454500  0.40909100  1
  Cu  Cu9  1  0.16661833  0.16661858  0.50152786  1
  Cu  Cu10  1  0.16709065  0.49978472  0.50051053  1
  Cu  Cu11  1  0.16660169  0.83311623  0.50152871  1
  Cu  Cu12  1  0.49978460  0.16709082  0.50051050  1
  Cu  Cu13  1  0.49978407  0.49978405  0.50051785  1
  Cu  Cu14  1  0.50048683  0.83295289  0.50141386  1
  Cu  Cu15  1  0.83311613  0.16660194  0.50152870  1
  Cu  Cu16  1  0.83295298  0.50048677  0.50141388  1
  Cu  Cu17  1  0.83293992  0.83293980  0.50141189  1
  Cu  Cu18  1  0.04532096  0.04532104  0.59364937  1
  Cu  Cu19  1  0.04471035  0.37867315  0.59299319  1
  Cu  Cu20  1  0.04470237  0.71278450  0.59298293  1
  Cu  Cu21  1  0.37867298  0.04471050  0.59299317  1
  Cu  Cu22  1  0.37885480  0.37885504  0.59187643  1
  Cu  Cu23  1  0.37867609  0.71280028  0.59299055  1
  Cu  Cu24  1  0.71278447  0.04470247  0.59298293  1
  Cu  Cu25  1  0.71280029  0.37867614  0.59299057  1
  Cu  Cu26  1  0.71198600  0.71198603  0.59355863  1
  H  H27  1  0.37139242  0.37139234  0.65834308  1
