# generated using pymatgen
data_Cu27CO
_symmetry_space_group_name_H-M   'P 1'
_cell_length_a   7.56629665
_cell_length_b   7.56629665
_cell_length_c   22.70406582
_cell_angle_alpha   86.87439516
_cell_angle_beta   86.87439516
_cell_angle_gamma   60.02635040
_symmetry_Int_Tables_number   1
_chemical_formula_structural   Cu27CO
_chemical_formula_sum   'Cu27 C1 O1'
_cell_volume   1123.70819012
_cell_formula_units_Z   1
loop_
 _symmetry_equiv_pos_site_id
 _symmetry_equiv_pos_as_xyz
  1  'x, y, z'
loop_
 _atom_site_type_symbol
 _atom_site_label
 _atom_site_symmetry_multiplicity
 _atom_site_fract_x
 _atom_site_fract_y
 _atom_site_fract_z
 _atom_site_occupancy
  Cu  Cu0  1  0.28787900  0.28787900  0.40909100  1
  Cu  Cu1  1  0.28787900  0.62121200  0.40909100  1
  Cu  Cu2  1  0.28787900  0.95454600  0.40909100  1
  Cu  Cu3  1  0.62121200  0.28787900  0.40909100  1
  Cu  Cu4  1  0.62121200  0.62121200  0.40909100  1
  Cu  Cu5  1  0.62121200  0.95454500  0.40909100  1
  Cu  Cu6  1  0.95454600  0.28787900  0.40909100  1
  Cu  Cu7  1  0.95454500  0.62121200  0.40909100  1
  Cu  Cu8  1  0.95454500  0.95454500  0.40909100  1
  Cu  Cu9  1  0.16649060  0.16627968  0.50117302  1
  Cu  Cu10  1  0.16745188  0.49919506  0.50127270  1
  Cu  Cu11  1  0.16774240  0.83223148  0.50144656  1
  Cu  Cu12  1  0.49936377  0.16725010  0.50127425  1
  Cu  Cu13  1  0.50007856  0.49986120  0.49885626  1
  Cu  Cu14  1  0.49931881  0.83214245  0.50143475  1
  Cu  Cu15  1  0.83251212  0.16746467  0.50140597  1
  Cu  Cu16  1  0.83239042  0.49916113  0.50139309  1
  Cu  Cu17  1  0.83326751  0.83308806  0.50033341  1
  Cu  Cu18  1  0.04551172  0.04494606  0.59302472  1
  Cu  Cu19  1  0.04516777  0.37769643  0.59293419  1
  Cu  Cu20  1  0.04264189  0.71288374  0.59214393  1
  Cu  Cu21  1  0.37806587  0.04469795  0.59295487  1
  Cu  Cu22  1  0.37684183  0.37643614  0.59404715  1
  Cu  Cu23  1  0.37735146  0.71313702  0.59474142  1
  Cu  Cu24  1  0.71328192  0.04223152  0.59211535  1
  Cu  Cu25  1  0.71389228  0.37680003  0.59456506  1
  Cu  Cu26  1  0.71319133  0.71281823  0.59222209  1
  O  O27  1  0.47544196  0.47224832  0.70827398  1
  C  C28  1  0.48173038  0.47945388  0.65598666  1
