# generated using pymatgen
data_Cu27H
_symmetry_space_group_name_H-M   'P 1'
_cell_length_a   7.56629665
_cell_length_b   7.56629665
_cell_length_c   22.70406582
_cell_angle_alpha   86.87439516
_cell_angle_beta   86.87439516
_cell_angle_gamma   60.02635040
_symmetry_Int_Tables_number   1
_chemical_formula_structural   Cu27H
_chemical_formula_sum   'Cu27 H1'
_cell_volume   1123.70819012
_cell_formula_units_Z   1
loop_
 _symmetry_equiv_pos_site_id
 _symmetry_equiv_pos_as_xyz
  1  'x, y, z'
loop_
 _atom_site_type_symbol
 _atom_site_label
 _atom_site_symmetry_multiplicity
 _atom_site_fract_x
 _atom_site_fract_y
 _atom_site_fract_z
 _atom_site_occupancy
  Cu  Cu0  1  0.28787900  0.28787900  0.40909100  1
  Cu  Cu1  1  0.28787900  0.62121200  0.40909100  1
  Cu  Cu2  1  0.28787900  0.95454600  0.40909100  1
  Cu  Cu3  1  0.62121200  0.28787900  0.40909100  1
  Cu  Cu4  1  0.62121200  0.62121200  0.40909100  1
  Cu  Cu5  1  0.62121200  0.95454500  0.40909100  1
  Cu  Cu6  1  0.95454600  0.28787900  0.40909100  1
  Cu  Cu7  1  0.95454500  0.62121200  0.40909100  1
  Cu  Cu8  1  0.95454500  0.95454500  0.40909100  1
  Cu  Cu9  1  0.16656963  0.16656986  0.50134003  1
  Cu  Cu10  1  0.16715463  0.49985315  0.50151012  1
  Cu  Cu11  1  0.16714987  0.83266408  0.50151875  1
  Cu  Cu12  1  0.49985297  0.16715482  0.50151013  1
  Cu  Cu13  1  0.50017801  0.50017814  0.49893253  1
  Cu  Cu14  1  0.49984959  0.83266663  0.50150744  1
  Cu  Cu15  1  0.83266404  0.16714998  0.50151877  1
  Cu  Cu16  1  0.83266640  0.49984979  0.50150746  1
  Cu  Cu17  1  0.83331066  0.83331077  0.50075994  1
  Cu  Cu18  1  0.04547598  0.04547625  0.59325662  1
  Cu  Cu19  1  0.04547634  0.37844241  0.59323616  1
  Cu  Cu20  1  0.04322873  0.71310129  0.59311780  1
  Cu  Cu21  1  0.37844207  0.04547668  0.59323612  1
  Cu  Cu22  1  0.37813457  0.37813488  0.59350094  1
  Cu  Cu23  1  0.37814355  0.71302880  0.59351328  1
  Cu  Cu24  1  0.71310094  0.04322898  0.59311780  1
  Cu  Cu25  1  0.71302856  0.37814373  0.59351330  1
  Cu  Cu26  1  0.71310135  0.71310162  0.59310514  1
  H  H27  1  0.48537498  0.48537527  0.63369219  1
