# generated using pymatgen
data_Cu27CO
_symmetry_space_group_name_H-M   'P 1'
_cell_length_a   7.56931200
_cell_length_b   7.57163409
_cell_length_c   24.95416000
_cell_angle_alpha   89.99856981
_cell_angle_beta   89.99866020
_cell_angle_gamma   89.99125989
_symmetry_Int_Tables_number   1
_chemical_formula_structural   Cu27CO
_chemical_formula_sum   'Cu27 C1 O1'
_cell_volume   1430.17431756
_cell_formula_units_Z   1
loop_
 _symmetry_equiv_pos_site_id
 _symmetry_equiv_pos_as_xyz
  1  'x, y, z'
loop_
 _atom_site_type_symbol
 _atom_site_label
 _atom_site_symmetry_multiplicity
 _atom_site_fract_x
 _atom_site_fract_y
 _atom_site_fract_z
 _atom_site_occupancy
  Cu  Cu0  1  0.99981175  0.99981057  0.53543514  1
  Cu  Cu1  1  0.99819308  0.33336435  0.53563284  1
  Cu  Cu2  1  0.99985283  0.66680826  0.53545358  1
  Cu  Cu3  1  0.33336566  0.99818602  0.53563145  1
  Cu  Cu4  1  0.33395597  0.33395834  0.53912424  1
  Cu  Cu5  1  0.33336862  0.66892636  0.53563897  1
  Cu  Cu6  1  0.66680952  0.99985128  0.53545353  1
  Cu  Cu7  1  0.66892251  0.33336736  0.53564023  1
  Cu  Cu8  1  0.66677375  0.66677271  0.53547095  1
  Cu  Cu9  1  0.00000100  0.00000000  0.39285700  1
  Cu  Cu10  1  0.00000100  0.33333300  0.39285700  1
  Cu  Cu11  1  0.00000100  0.66666700  0.39285700  1
  Cu  Cu12  1  0.33333400  0.00000000  0.39285700  1
  Cu  Cu13  1  0.33333400  0.33333300  0.39285700  1
  Cu  Cu14  1  0.33333400  0.66666700  0.39285700  1
  Cu  Cu15  1  0.66666700  0.00000000  0.39285700  1
  Cu  Cu16  1  0.66666700  0.33333300  0.39285700  1
  Cu  Cu17  1  0.66666700  0.66666700  0.39285700  1
  Cu  Cu18  1  0.16666700  0.16666600  0.46428600  1
  Cu  Cu19  1  0.16666700  0.50000000  0.46428600  1
  Cu  Cu20  1  0.16666700  0.83333300  0.46428600  1
  Cu  Cu21  1  0.50000100  0.16666600  0.46428600  1
  Cu  Cu22  1  0.50000100  0.50000000  0.46428600  1
  Cu  Cu23  1  0.50000100  0.83333300  0.46428600  1
  Cu  Cu24  1  0.83333400  0.16666600  0.46428600  1
  Cu  Cu25  1  0.83333400  0.50000000  0.46428600  1
  Cu  Cu26  1  0.83333400  0.83333300  0.46428600  1
  O  O27  1  0.32094792  0.32087153  0.65912079  1
  C  C28  1  0.32674325  0.32670207  0.61297168  1
