# generated using pymatgen
data_Sn36H
_symmetry_space_group_name_H-M   'P 1'
_cell_length_a   9.43221838
_cell_length_b   11.60326658
_cell_length_c   30.60418900
_cell_angle_alpha   90.03914768
_cell_angle_beta   90.23654075
_cell_angle_gamma   88.57775690
_symmetry_Int_Tables_number   1
_chemical_formula_structural   Sn36H
_chemical_formula_sum   'Sn36 H1'
_cell_volume   3348.40054919
_cell_formula_units_Z   1
loop_
 _symmetry_equiv_pos_site_id
 _symmetry_equiv_pos_as_xyz
  1  'x, y, z'
loop_
 _atom_site_type_symbol
 _atom_site_label
 _atom_site_symmetry_multiplicity
 _atom_site_fract_x
 _atom_site_fract_y
 _atom_site_fract_z
 _atom_site_occupancy
  Sn  Sn0  1  0.21734940  0.31642868  0.54810941  1
  Sn  Sn1  1  0.21643067  0.81332273  0.54675249  1
  Sn  Sn2  1  0.54877917  0.30548694  0.55093061  1
  Sn  Sn3  1  0.54856965  0.81746656  0.55097724  1
  Sn  Sn4  1  0.88762911  0.31040207  0.54862039  1
  Sn  Sn5  1  0.88935384  0.81612007  0.55240582  1
  Sn  Sn6  1  0.02754960  0.06443788  0.54578392  1
  Sn  Sn7  1  0.01980690  0.56140050  0.54754124  1
  Sn  Sn8  1  0.35523616  0.06041725  0.55092315  1
  Sn  Sn9  1  0.34888003  0.56696186  0.54831925  1
  Sn  Sn10  1  0.69640139  0.05917253  0.55226559  1
  Sn  Sn11  1  0.68723395  0.56853149  0.55155736  1
  Sn  Sn12  1  0.22353512  0.31137858  0.44857743  1
  Sn  Sn13  1  0.22703350  0.81322909  0.44725853  1
  Sn  Sn14  1  0.55761975  0.31196978  0.44928494  1
  Sn  Sn15  1  0.56036932  0.81337815  0.45103543  1
  Sn  Sn16  1  0.89159246  0.31080974  0.45024977  1
  Sn  Sn17  1  0.89340489  0.81268784  0.45261303  1
  Sn  Sn18  1  0.02463376  0.06017531  0.44669787  1
  Sn  Sn19  1  0.01538103  0.55988637  0.44787649  1
  Sn  Sn20  1  0.35834422  0.06082296  0.45110994  1
  Sn  Sn21  1  0.34825101  0.56009620  0.44972256  1
  Sn  Sn22  1  0.69110323  0.06050418  0.45216423  1
  Sn  Sn23  1  0.68232280  0.56036394  0.44968606  1
  Sn  Sn24  1  0.21579100  0.31083800  0.34996900  1
  Sn  Sn25  1  0.21579100  0.81083800  0.34996900  1
  Sn  Sn26  1  0.54912400  0.31083800  0.34996900  1
  Sn  Sn27  1  0.54912400  0.81083800  0.34996900  1
  Sn  Sn28  1  0.88245700  0.31083800  0.34996900  1
  Sn  Sn29  1  0.88245700  0.81083800  0.34996900  1
  Sn  Sn30  1  0.03172900  0.06063000  0.35002900  1
  Sn  Sn31  1  0.03172900  0.56063000  0.35002900  1
  Sn  Sn32  1  0.36506200  0.06063000  0.35002900  1
  Sn  Sn33  1  0.36506200  0.56063000  0.35002900  1
  Sn  Sn34  1  0.69839600  0.06063000  0.35002900  1
  Sn  Sn35  1  0.69839600  0.56063000  0.35002900  1
  H  H36  1  0.61283642  0.43558059  0.58808096  1
