# generated using pymatgen
data_Cu27HO
_symmetry_space_group_name_H-M   'P 1'
_cell_length_a   7.56629665
_cell_length_b   7.56629665
_cell_length_c   22.70406582
_cell_angle_alpha   86.87439516
_cell_angle_beta   86.87439516
_cell_angle_gamma   60.02635040
_symmetry_Int_Tables_number   1
_chemical_formula_structural   Cu27HO
_chemical_formula_sum   'Cu27 H1 O1'
_cell_volume   1123.70819012
_cell_formula_units_Z   1
loop_
 _symmetry_equiv_pos_site_id
 _symmetry_equiv_pos_as_xyz
  1  'x, y, z'
loop_
 _atom_site_type_symbol
 _atom_site_label
 _atom_site_symmetry_multiplicity
 _atom_site_fract_x
 _atom_site_fract_y
 _atom_site_fract_z
 _atom_site_occupancy
  Cu  Cu0  1  0.28787900  0.28787900  0.40909100  1
  Cu  Cu1  1  0.28787900  0.62121200  0.40909100  1
  Cu  Cu2  1  0.28787900  0.95454600  0.40909100  1
  Cu  Cu3  1  0.62121200  0.28787900  0.40909100  1
  Cu  Cu4  1  0.62121200  0.62121200  0.40909100  1
  Cu  Cu5  1  0.62121200  0.95454500  0.40909100  1
  Cu  Cu6  1  0.95454600  0.28787900  0.40909100  1
  Cu  Cu7  1  0.95454500  0.62121200  0.40909100  1
  Cu  Cu8  1  0.95454500  0.95454500  0.40909100  1
  Cu  Cu9  1  0.17104803  0.17100720  0.50134510  1
  Cu  Cu10  1  0.17086154  0.50277120  0.50113884  1
  Cu  Cu11  1  0.17087695  0.83675953  0.50057566  1
  Cu  Cu12  1  0.50281196  0.17082264  0.50113730  1
  Cu  Cu13  1  0.50258382  0.50254558  0.50056711  1
  Cu  Cu14  1  0.50217521  0.84039228  0.50102592  1
  Cu  Cu15  1  0.83679420  0.17084233  0.50057601  1
  Cu  Cu16  1  0.84043887  0.50213068  0.50102884  1
  Cu  Cu17  1  0.83674804  0.83671260  0.50064523  1
  Cu  Cu18  1  0.04994295  0.04988843  0.59176183  1
  Cu  Cu19  1  0.03814912  0.39190233  0.59445609  1
  Cu  Cu20  1  0.04984923  0.72239738  0.59176348  1
  Cu  Cu21  1  0.39198134  0.03805660  0.59444541  1
  Cu  Cu22  1  0.39335813  0.39329938  0.59316156  1
  Cu  Cu23  1  0.38521338  0.71954673  0.59131182  1
  Cu  Cu24  1  0.72244962  0.04979679  0.59176330  1
  Cu  Cu25  1  0.71961447  0.38515586  0.59131456  1
  Cu  Cu26  1  0.71863257  0.71855182  0.59171148  1
  O  O27  1  0.27115298  0.27100626  0.64700052  1
  H  H28  1  0.26931291  0.26907445  0.69084155  1
