# generated using pymatgen
data_Cu27HCO2
_symmetry_space_group_name_H-M   'P 1'
_cell_length_a   7.56629665
_cell_length_b   7.56629665
_cell_length_c   22.70406582
_cell_angle_alpha   86.87439516
_cell_angle_beta   86.87439516
_cell_angle_gamma   60.02635040
_symmetry_Int_Tables_number   1
_chemical_formula_structural   Cu27HCO2
_chemical_formula_sum   'Cu27 H1 C1 O2'
_cell_volume   1123.70819012
_cell_formula_units_Z   1
loop_
 _symmetry_equiv_pos_site_id
 _symmetry_equiv_pos_as_xyz
  1  'x, y, z'
loop_
 _atom_site_type_symbol
 _atom_site_label
 _atom_site_symmetry_multiplicity
 _atom_site_fract_x
 _atom_site_fract_y
 _atom_site_fract_z
 _atom_site_occupancy
  Cu  Cu0  1  0.28787900  0.28787900  0.40909100  1
  Cu  Cu1  1  0.28787900  0.62121200  0.40909100  1
  Cu  Cu2  1  0.28787900  0.95454600  0.40909100  1
  Cu  Cu3  1  0.62121200  0.28787900  0.40909100  1
  Cu  Cu4  1  0.62121200  0.62121200  0.40909100  1
  Cu  Cu5  1  0.62121200  0.95454500  0.40909100  1
  Cu  Cu6  1  0.95454600  0.28787900  0.40909100  1
  Cu  Cu7  1  0.95454500  0.62121200  0.40909100  1
  Cu  Cu8  1  0.95454500  0.95454500  0.40909100  1
  Cu  Cu9  1  0.16663251  0.16642378  0.50097703  1
  Cu  Cu10  1  0.16813603  0.49895224  0.50195119  1
  Cu  Cu11  1  0.16666355  0.83305244  0.50110907  1
  Cu  Cu12  1  0.49909906  0.16793753  0.50185763  1
  Cu  Cu13  1  0.49901421  0.49894203  0.50193841  1
  Cu  Cu14  1  0.50051494  0.83298420  0.50061098  1
  Cu  Cu15  1  0.83340594  0.16640409  0.50098220  1
  Cu  Cu16  1  0.83306516  0.50050682  0.50044321  1
  Cu  Cu17  1  0.83307064  0.83298822  0.50061828  1
  Cu  Cu18  1  0.04544775  0.04508580  0.59332986  1
  Cu  Cu19  1  0.04284646  0.37842990  0.59189213  1
  Cu  Cu20  1  0.04305275  0.71438455  0.59223269  1
  Cu  Cu21  1  0.37848273  0.04270939  0.59208222  1
  Cu  Cu22  1  0.37888472  0.37717065  0.59622795  1
  Cu  Cu23  1  0.37882328  0.71436360  0.59221231  1
  Cu  Cu24  1  0.71515623  0.04270115  0.59208945  1
  Cu  Cu25  1  0.71512291  0.37839335  0.59187425  1
  Cu  Cu26  1  0.71211825  0.71185480  0.59262612  1
  C  C27  1  0.36388065  0.35966259  0.74030857  1
  O  O28  1  0.43891283  0.19867105  0.77225016  1
  O  O29  1  0.36740288  0.37119467  0.68452094  1
  H  H30  1  0.28549801  0.50927901  0.76266863  1
