# generated using pymatgen
data_Cu27H
_symmetry_space_group_name_H-M   'P 1'
_cell_length_a   7.56629665
_cell_length_b   7.56629665
_cell_length_c   22.70406582
_cell_angle_alpha   86.87439516
_cell_angle_beta   86.87439516
_cell_angle_gamma   60.02635040
_symmetry_Int_Tables_number   1
_chemical_formula_structural   Cu27H
_chemical_formula_sum   'Cu27 H1'
_cell_volume   1123.70819012
_cell_formula_units_Z   1
loop_
 _symmetry_equiv_pos_site_id
 _symmetry_equiv_pos_as_xyz
  1  'x, y, z'
loop_
 _atom_site_type_symbol
 _atom_site_label
 _atom_site_symmetry_multiplicity
 _atom_site_fract_x
 _atom_site_fract_y
 _atom_site_fract_z
 _atom_site_occupancy
  Cu  Cu0  1  0.28787900  0.28787900  0.40909100  1
  Cu  Cu1  1  0.28787900  0.62121200  0.40909100  1
  Cu  Cu2  1  0.28787900  0.95454600  0.40909100  1
  Cu  Cu3  1  0.62121200  0.28787900  0.40909100  1
  Cu  Cu4  1  0.62121200  0.62121200  0.40909100  1
  Cu  Cu5  1  0.62121200  0.95454500  0.40909100  1
  Cu  Cu6  1  0.95454600  0.28787900  0.40909100  1
  Cu  Cu7  1  0.95454500  0.62121200  0.40909100  1
  Cu  Cu8  1  0.95454500  0.95454500  0.40909100  1
  Cu  Cu9  1  0.16667482  0.16667474  0.50173198  1
  Cu  Cu10  1  0.16691259  0.49987629  0.50060471  1
  Cu  Cu11  1  0.16665635  0.83296859  0.50173096  1
  Cu  Cu12  1  0.49987613  0.16691256  0.50060469  1
  Cu  Cu13  1  0.49987199  0.49987218  0.50060950  1
  Cu  Cu14  1  0.50005741  0.83312763  0.50175529  1
  Cu  Cu15  1  0.83296861  0.16665636  0.50173097  1
  Cu  Cu16  1  0.83312748  0.50005747  0.50175528  1
  Cu  Cu17  1  0.83311256  0.83311264  0.50175714  1
  Cu  Cu18  1  0.04529461  0.04529464  0.59398921  1
  Cu  Cu19  1  0.04493799  0.37861920  0.59365051  1
  Cu  Cu20  1  0.04493382  0.71242526  0.59364532  1
  Cu  Cu21  1  0.37861906  0.04493810  0.59365053  1
  Cu  Cu22  1  0.37887390  0.37887397  0.59176807  1
  Cu  Cu23  1  0.37862307  0.71244149  0.59364750  1
  Cu  Cu24  1  0.71242516  0.04493398  0.59364532  1
  Cu  Cu25  1  0.71244138  0.37862317  0.59364752  1
  Cu  Cu26  1  0.71196085  0.71196099  0.59388241  1
  H  H27  1  0.37141016  0.37141004  0.65812343  1
