# generated using pymatgen
data_Cu27CO2
_symmetry_space_group_name_H-M   'P 1'
_cell_length_a   7.56931200
_cell_length_b   7.57163409
_cell_length_c   24.95416000
_cell_angle_alpha   89.99856981
_cell_angle_beta   89.99866020
_cell_angle_gamma   89.99125989
_symmetry_Int_Tables_number   1
_chemical_formula_structural   Cu27CO2
_chemical_formula_sum   'Cu27 C1 O2'
_cell_volume   1430.17431756
_cell_formula_units_Z   1
loop_
 _symmetry_equiv_pos_site_id
 _symmetry_equiv_pos_as_xyz
  1  'x, y, z'
loop_
 _atom_site_type_symbol
 _atom_site_label
 _atom_site_symmetry_multiplicity
 _atom_site_fract_x
 _atom_site_fract_y
 _atom_site_fract_z
 _atom_site_occupancy
  Cu  Cu0  1  0.99909708  0.99893554  0.53541115  1
  Cu  Cu1  1  0.99964897  0.33334244  0.53573879  1
  Cu  Cu2  1  0.99909634  0.66770321  0.53541148  1
  Cu  Cu3  1  0.33334479  0.99813527  0.53628306  1
  Cu  Cu4  1  0.33335842  0.33333938  0.53903924  1
  Cu  Cu5  1  0.33334417  0.66849480  0.53628134  1
  Cu  Cu6  1  0.66754268  0.99893321  0.53541175  1
  Cu  Cu7  1  0.66700815  0.33333780  0.53573922  1
  Cu  Cu8  1  0.66754196  0.66770018  0.53541354  1
  Cu  Cu9  1  0.00000100  0.00000000  0.39285700  1
  Cu  Cu10  1  0.00000100  0.33333300  0.39285700  1
  Cu  Cu11  1  0.00000100  0.66666700  0.39285700  1
  Cu  Cu12  1  0.33333400  0.00000000  0.39285700  1
  Cu  Cu13  1  0.33333400  0.33333300  0.39285700  1
  Cu  Cu14  1  0.33333400  0.66666700  0.39285700  1
  Cu  Cu15  1  0.66666700  0.00000000  0.39285700  1
  Cu  Cu16  1  0.66666700  0.33333300  0.39285700  1
  Cu  Cu17  1  0.66666700  0.66666700  0.39285700  1
  Cu  Cu18  1  0.16666500  0.16666500  0.46429000  1
  Cu  Cu19  1  0.16666400  0.50000000  0.46429000  1
  Cu  Cu20  1  0.16666500  0.83333500  0.46429000  1
  Cu  Cu21  1  0.50000100  0.16666300  0.46429000  1
  Cu  Cu22  1  0.50000100  0.50000000  0.46429000  1
  Cu  Cu23  1  0.50000100  0.83333600  0.46429000  1
  Cu  Cu24  1  0.83333600  0.16666500  0.46429000  1
  Cu  Cu25  1  0.83333700  0.50000000  0.46429000  1
  Cu  Cu26  1  0.83333600  0.83333500  0.46429000  1
  C  C27  1  0.33325333  0.33331284  0.61855856  1
  O  O28  1  0.33316577  0.48264597  0.64084995  1
  O  O29  1  0.33321847  0.18396968  0.64084516  1
