# generated using pymatgen
data_Co27HN2
_symmetry_space_group_name_H-M   'P 1'
_cell_length_a   7.20020400
_cell_length_b   7.22369791
_cell_length_c   21.95056060
_cell_angle_alpha   90.70782154
_cell_angle_beta   92.74453361
_cell_angle_gamma   114.11633735
_symmetry_Int_Tables_number   1
_chemical_formula_structural   Co27HN2
_chemical_formula_sum   'Co27 H1 N2'
_cell_volume   1040.21162622
_cell_formula_units_Z   1
loop_
 _symmetry_equiv_pos_site_id
 _symmetry_equiv_pos_as_xyz
  1  'x, y, z'
loop_
 _atom_site_type_symbol
 _atom_site_label
 _atom_site_symmetry_multiplicity
 _atom_site_fract_x
 _atom_site_fract_y
 _atom_site_fract_z
 _atom_site_occupancy
  Co  Co0  1  0.28787700  0.18181700  0.40909100  1
  Co  Co1  1  0.28787700  0.51515000  0.40909100  1
  Co  Co2  1  0.28787700  0.84848400  0.40909100  1
  Co  Co3  1  0.62121100  0.18181700  0.40909100  1
  Co  Co4  1  0.62121100  0.51515000  0.40909100  1
  Co  Co5  1  0.62121100  0.84848400  0.40909100  1
  Co  Co6  1  0.95454400  0.18181700  0.40909100  1
  Co  Co7  1  0.95454400  0.51515000  0.40909100  1
  Co  Co8  1  0.95454400  0.84848400  0.40909100  1
  Co  Co9  1  0.18474500  0.98397100  0.49990100  1
  Co  Co10  1  0.18239000  0.31597900  0.49965500  1
  Co  Co11  1  0.18467000  0.65110900  0.49967000  1
  Co  Co12  1  0.51687600  0.98281700  0.49990800  1
  Co  Co13  1  0.51495500  0.31474900  0.49977000  1
  Co  Co14  1  0.51661600  0.64920000  0.49977100  1
  Co  Co15  1  0.85016400  0.98191200  0.49988600  1
  Co  Co16  1  0.84723500  0.31352400  0.49968100  1
  Co  Co17  1  0.84899400  0.64747000  0.49979500  1
  Co  Co18  1  0.08124433  0.11566813  0.59368695  1
  Co  Co19  1  0.07752501  0.45076888  0.59229617  1
  Co  Co20  1  0.07793269  0.78368336  0.59430931  1
  Co  Co21  1  0.41736285  0.11234428  0.59345034  1
  Co  Co22  1  0.41735149  0.45030428  0.60424258  1
  Co  Co23  1  0.41084805  0.78435026  0.59265695  1
  Co  Co24  1  0.74983186  0.11126411  0.59461512  1
  Co  Co25  1  0.74981381  0.44472438  0.59313101  1
  Co  Co26  1  0.74647941  0.78032560  0.59385282  1
  N  N27  1  0.42640788  0.46407910  0.67927403  1
  N  N28  1  0.41871043  0.47758458  0.73311727  1
  H  H29  1  0.52850135  0.46330453  0.76319757  1
