# generated using pymatgen
data_Cu27HCO
_symmetry_space_group_name_H-M   'P 1'
_cell_length_a   7.56931200
_cell_length_b   7.57163409
_cell_length_c   24.95416000
_cell_angle_alpha   89.99856981
_cell_angle_beta   89.99866020
_cell_angle_gamma   89.99125989
_symmetry_Int_Tables_number   1
_chemical_formula_structural   Cu27HCO
_chemical_formula_sum   'Cu27 H1 C1 O1'
_cell_volume   1430.17431756
_cell_formula_units_Z   1
loop_
 _symmetry_equiv_pos_site_id
 _symmetry_equiv_pos_as_xyz
  1  'x, y, z'
loop_
 _atom_site_type_symbol
 _atom_site_label
 _atom_site_symmetry_multiplicity
 _atom_site_fract_x
 _atom_site_fract_y
 _atom_site_fract_z
 _atom_site_occupancy
  Cu  Cu0  1  0.99982388  0.00037860  0.53571630  1
  Cu  Cu1  1  0.99621524  0.33306731  0.53549389  1
  Cu  Cu2  1  0.99965659  0.66665444  0.53560959  1
  Cu  Cu3  1  0.33345099  0.99913598  0.53606802  1
  Cu  Cu4  1  0.32657084  0.33263589  0.53882783  1
  Cu  Cu5  1  0.33312738  0.66629828  0.53626280  1
  Cu  Cu6  1  0.66855371  0.99911875  0.53523401  1
  Cu  Cu7  1  0.66974674  0.33381145  0.53787978  1
  Cu  Cu8  1  0.66871512  0.66927708  0.53499494  1
  Cu  Cu9  1  0.00000100  0.00000000  0.39285700  1
  Cu  Cu10  1  0.00000100  0.33333300  0.39285700  1
  Cu  Cu11  1  0.00000100  0.66666700  0.39285700  1
  Cu  Cu12  1  0.33333400  0.00000000  0.39285700  1
  Cu  Cu13  1  0.33333400  0.33333300  0.39285700  1
  Cu  Cu14  1  0.33333400  0.66666700  0.39285700  1
  Cu  Cu15  1  0.66666700  0.00000000  0.39285700  1
  Cu  Cu16  1  0.66666700  0.33333300  0.39285700  1
  Cu  Cu17  1  0.66666700  0.66666700  0.39285700  1
  Cu  Cu18  1  0.16666500  0.16666500  0.46429000  1
  Cu  Cu19  1  0.16666400  0.50000000  0.46429000  1
  Cu  Cu20  1  0.16666500  0.83333500  0.46429000  1
  Cu  Cu21  1  0.50000100  0.16666300  0.46429000  1
  Cu  Cu22  1  0.50000100  0.50000000  0.46429000  1
  Cu  Cu23  1  0.50000100  0.83333600  0.46429000  1
  Cu  Cu24  1  0.83333600  0.16666500  0.46429000  1
  Cu  Cu25  1  0.83333700  0.50000000  0.46429000  1
  Cu  Cu26  1  0.83333600  0.83333500  0.46429000  1
  C  C27  1  0.39283659  0.34762152  0.61262728  1
  H  H28  1  0.28640058  0.34373772  0.64399804  1
  O  O29  1  0.54770704  0.35643090  0.62987144  1
