# generated using pymatgen
data_Cu27H3N
_symmetry_space_group_name_H-M   'P 1'
_cell_length_a   7.56629665
_cell_length_b   7.56629665
_cell_length_c   22.70406582
_cell_angle_alpha   86.87439516
_cell_angle_beta   86.87439516
_cell_angle_gamma   60.02635040
_symmetry_Int_Tables_number   1
_chemical_formula_structural   Cu27H3N
_chemical_formula_sum   'Cu27 H3 N1'
_cell_volume   1123.70819012
_cell_formula_units_Z   1
loop_
 _symmetry_equiv_pos_site_id
 _symmetry_equiv_pos_as_xyz
  1  'x, y, z'
loop_
 _atom_site_type_symbol
 _atom_site_label
 _atom_site_symmetry_multiplicity
 _atom_site_fract_x
 _atom_site_fract_y
 _atom_site_fract_z
 _atom_site_occupancy
  Cu  Cu0  1  0.28787900  0.28787900  0.40909100  1
  Cu  Cu1  1  0.28787900  0.62121200  0.40909100  1
  Cu  Cu2  1  0.28787900  0.95454600  0.40909100  1
  Cu  Cu3  1  0.62121200  0.28787900  0.40909100  1
  Cu  Cu4  1  0.62121200  0.62121200  0.40909100  1
  Cu  Cu5  1  0.62121200  0.95454500  0.40909100  1
  Cu  Cu6  1  0.95454600  0.28787900  0.40909100  1
  Cu  Cu7  1  0.95454500  0.62121200  0.40909100  1
  Cu  Cu8  1  0.95454500  0.95454500  0.40909100  1
  Cu  Cu9  1  0.16673670  0.16665927  0.50041891  1
  Cu  Cu10  1  0.16893326  0.49862408  0.50152651  1
  Cu  Cu11  1  0.16685336  0.83319020  0.50043300  1
  Cu  Cu12  1  0.49869216  0.16889201  0.50156608  1
  Cu  Cu13  1  0.49867191  0.49857484  0.50158587  1
  Cu  Cu14  1  0.50075482  0.83292688  0.50003016  1
  Cu  Cu15  1  0.83329286  0.16656495  0.50045476  1
  Cu  Cu16  1  0.83314064  0.50053349  0.50003382  1
  Cu  Cu17  1  0.83308469  0.83307157  0.50003776  1
  Cu  Cu18  1  0.04551793  0.04529734  0.59251487  1
  Cu  Cu19  1  0.04329600  0.37840976  0.59109685  1
  Cu  Cu20  1  0.04336523  0.71479945  0.59098023  1
  Cu  Cu21  1  0.37866893  0.04318714  0.59099547  1
  Cu  Cu22  1  0.37806621  0.37816315  0.59719928  1
  Cu  Cu23  1  0.37863704  0.71457732  0.59118656  1
  Cu  Cu24  1  0.71473726  0.04334458  0.59120157  1
  Cu  Cu25  1  0.71468137  0.37840526  0.59108334  1
  Cu  Cu26  1  0.71223341  0.71198519  0.59190508  1
  N  N27  1  0.36476647  0.36853111  0.68729618  1
  H  H28  1  0.46406357  0.40592061  0.70471285  1
  H  H29  1  0.22092133  0.46906824  0.70376924  1
  H  H30  1  0.40095738  0.22592445  0.70412969  1
