# generated using pymatgen
data_Sn36HCO
_symmetry_space_group_name_H-M   'P 1'
_cell_length_a   9.43221838
_cell_length_b   11.60326658
_cell_length_c   30.60418900
_cell_angle_alpha   90.03914768
_cell_angle_beta   90.23654075
_cell_angle_gamma   88.57775690
_symmetry_Int_Tables_number   1
_chemical_formula_structural   Sn36HCO
_chemical_formula_sum   'Sn36 H1 C1 O1'
_cell_volume   3348.40054919
_cell_formula_units_Z   1
loop_
 _symmetry_equiv_pos_site_id
 _symmetry_equiv_pos_as_xyz
  1  'x, y, z'
loop_
 _atom_site_type_symbol
 _atom_site_label
 _atom_site_symmetry_multiplicity
 _atom_site_fract_x
 _atom_site_fract_y
 _atom_site_fract_z
 _atom_site_occupancy
  Sn  Sn0  1  0.22526721  0.34689972  0.56117691  1
  Sn  Sn1  1  0.22113580  0.81599649  0.54908978  1
  Sn  Sn2  1  0.58415622  0.31424247  0.54835874  1
  Sn  Sn3  1  0.55817115  0.82364113  0.54717350  1
  Sn  Sn4  1  0.91126749  0.31167503  0.54850476  1
  Sn  Sn5  1  0.89084153  0.82990141  0.56855398  1
  Sn  Sn6  1  0.04731385  0.06305780  0.54729884  1
  Sn  Sn7  1  0.00210898  0.58120871  0.54470087  1
  Sn  Sn8  1  0.37602996  0.06977070  0.55078801  1
  Sn  Sn9  1  0.35526903  0.57657492  0.54459124  1
  Sn  Sn10  1  0.71435870  0.06545356  0.54512739  1
  Sn  Sn11  1  0.67688014  0.56539084  0.56055086  1
  Sn  Sn12  1  0.22348977  0.30701188  0.46241169  1
  Sn  Sn13  1  0.24591743  0.81743643  0.44919003  1
  Sn  Sn14  1  0.55907924  0.31036345  0.44871788  1
  Sn  Sn15  1  0.58164400  0.81158031  0.44719262  1
  Sn  Sn16  1  0.89515068  0.30947721  0.44876401  1
  Sn  Sn17  1  0.90824068  0.81555357  0.46857143  1
  Sn  Sn18  1  0.04367840  0.05617996  0.44890008  1
  Sn  Sn19  1  0.00329178  0.56698382  0.44550868  1
  Sn  Sn20  1  0.37791233  0.06903021  0.44970101  1
  Sn  Sn21  1  0.33881791  0.55166926  0.44628786  1
  Sn  Sn22  1  0.71212765  0.06176762  0.44711093  1
  Sn  Sn23  1  0.67685722  0.55991280  0.46108497  1
  Sn  Sn24  1  0.21579100  0.31083800  0.34996900  1
  Sn  Sn25  1  0.21579100  0.81083800  0.34996900  1
  Sn  Sn26  1  0.54912400  0.31083800  0.34996900  1
  Sn  Sn27  1  0.54912400  0.81083800  0.34996900  1
  Sn  Sn28  1  0.88245700  0.31083800  0.34996900  1
  Sn  Sn29  1  0.88245700  0.81083800  0.34996900  1
  Sn  Sn30  1  0.03172900  0.06063000  0.35002900  1
  Sn  Sn31  1  0.03172900  0.56063000  0.35002900  1
  Sn  Sn32  1  0.36506200  0.06063000  0.35002900  1
  Sn  Sn33  1  0.36506200  0.56063000  0.35002900  1
  Sn  Sn34  1  0.69839600  0.06063000  0.35002900  1
  Sn  Sn35  1  0.69839600  0.56063000  0.35002900  1
  C  C36  1  0.41107235  0.24079742  0.59090717  1
  H  H37  1  0.35997922  0.22197711  0.65285027  1
  O  O38  1  0.44192790  0.24181012  0.63434973  1
