# generated using pymatgen
data_Sn36HCO
_symmetry_space_group_name_H-M   'P 1'
_cell_length_a   9.43221838
_cell_length_b   11.60326658
_cell_length_c   30.60418900
_cell_angle_alpha   90.03914768
_cell_angle_beta   90.23654075
_cell_angle_gamma   88.57775690
_symmetry_Int_Tables_number   1
_chemical_formula_structural   Sn36HCO
_chemical_formula_sum   'Sn36 H1 C1 O1'
_cell_volume   3348.40054919
_cell_formula_units_Z   1
loop_
 _symmetry_equiv_pos_site_id
 _symmetry_equiv_pos_as_xyz
  1  'x, y, z'
loop_
 _atom_site_type_symbol
 _atom_site_label
 _atom_site_symmetry_multiplicity
 _atom_site_fract_x
 _atom_site_fract_y
 _atom_site_fract_z
 _atom_site_occupancy
  Sn  Sn0  1  0.23250074  0.33599063  0.55030005  1
  Sn  Sn1  1  0.23132489  0.81751367  0.55229979  1
  Sn  Sn2  1  0.58798754  0.31348919  0.54647075  1
  Sn  Sn3  1  0.56589033  0.81929378  0.54803734  1
  Sn  Sn4  1  0.91146516  0.31022882  0.55091304  1
  Sn  Sn5  1  0.89859071  0.82458200  0.55252314  1
  Sn  Sn6  1  0.05357997  0.06605112  0.54679632  1
  Sn  Sn7  1  0.01547016  0.57015564  0.54828542  1
  Sn  Sn8  1  0.38276691  0.06801913  0.55289977  1
  Sn  Sn9  1  0.35726612  0.57440605  0.54681006  1
  Sn  Sn10  1  0.72082113  0.06128444  0.54536188  1
  Sn  Sn11  1  0.68467538  0.56468437  0.55564485  1
  Sn  Sn12  1  0.22615645  0.31126321  0.44956505  1
  Sn  Sn13  1  0.24054616  0.81802864  0.45173755  1
  Sn  Sn14  1  0.56072505  0.31229085  0.44838497  1
  Sn  Sn15  1  0.57185341  0.81619500  0.44797167  1
  Sn  Sn16  1  0.89287521  0.31063058  0.45108259  1
  Sn  Sn17  1  0.90605263  0.81682980  0.45228337  1
  Sn  Sn18  1  0.04618185  0.06294367  0.44860829  1
  Sn  Sn19  1  0.01650087  0.56234018  0.44874151  1
  Sn  Sn20  1  0.38024077  0.06917114  0.45143857  1
  Sn  Sn21  1  0.35240172  0.56124055  0.44763023  1
  Sn  Sn22  1  0.71401550  0.06226822  0.44724802  1
  Sn  Sn23  1  0.68515823  0.56481967  0.45581487  1
  Sn  Sn24  1  0.21579100  0.31083800  0.34996900  1
  Sn  Sn25  1  0.21579100  0.81083800  0.34996900  1
  Sn  Sn26  1  0.54912400  0.31083800  0.34996900  1
  Sn  Sn27  1  0.54912400  0.81083800  0.34996900  1
  Sn  Sn28  1  0.88245700  0.31083800  0.34996900  1
  Sn  Sn29  1  0.88245700  0.81083800  0.34996900  1
  Sn  Sn30  1  0.03172900  0.06063000  0.35002900  1
  Sn  Sn31  1  0.03172900  0.56063000  0.35002900  1
  Sn  Sn32  1  0.36506200  0.06063000  0.35002900  1
  Sn  Sn33  1  0.36506200  0.56063000  0.35002900  1
  Sn  Sn34  1  0.69839600  0.06063000  0.35002900  1
  Sn  Sn35  1  0.69839600  0.56063000  0.35002900  1
  C  C36  1  0.41330709  0.24540264  0.58914677  1
  H  H37  1  0.35362997  0.24425134  0.65081398  1
  O  O38  1  0.43841335  0.25856852  0.63303984  1
