# generated using pymatgen
data_Cu27H
_symmetry_space_group_name_H-M   'P 1'
_cell_length_a   7.56931200
_cell_length_b   7.57163409
_cell_length_c   24.95416000
_cell_angle_alpha   89.99856981
_cell_angle_beta   89.99866020
_cell_angle_gamma   89.99125989
_symmetry_Int_Tables_number   1
_chemical_formula_structural   Cu27H
_chemical_formula_sum   'Cu27 H1'
_cell_volume   1430.17431756
_cell_formula_units_Z   1
loop_
 _symmetry_equiv_pos_site_id
 _symmetry_equiv_pos_as_xyz
  1  'x, y, z'
loop_
 _atom_site_type_symbol
 _atom_site_label
 _atom_site_symmetry_multiplicity
 _atom_site_fract_x
 _atom_site_fract_y
 _atom_site_fract_z
 _atom_site_occupancy
  Cu  Cu0  1  0.99999614  0.99999568  0.53623945  1
  Cu  Cu1  1  0.00000077  0.33423258  0.53572138  1
  Cu  Cu2  1  0.99999175  0.66575450  0.53572056  1
  Cu  Cu3  1  0.33423235  0.99999961  0.53572420  1
  Cu  Cu4  1  0.33356243  0.33356169  0.53766839  1
  Cu  Cu5  1  0.33355162  0.66643964  0.53766753  1
  Cu  Cu6  1  0.66575569  0.99999083  0.53572330  1
  Cu  Cu7  1  0.66643989  0.33355077  0.53766768  1
  Cu  Cu8  1  0.66642942  0.66642957  0.53766849  1
  Cu  Cu9  1  0.00000100  0.00000000  0.39285700  1
  Cu  Cu10  1  0.00000100  0.33333300  0.39285700  1
  Cu  Cu11  1  0.00000100  0.66666700  0.39285700  1
  Cu  Cu12  1  0.33333400  0.00000000  0.39285700  1
  Cu  Cu13  1  0.33333400  0.33333300  0.39285700  1
  Cu  Cu14  1  0.33333400  0.66666700  0.39285700  1
  Cu  Cu15  1  0.66666700  0.00000000  0.39285700  1
  Cu  Cu16  1  0.66666700  0.33333300  0.39285700  1
  Cu  Cu17  1  0.66666700  0.66666700  0.39285700  1
  Cu  Cu18  1  0.16666000  0.16665900  0.46434700  1
  Cu  Cu19  1  0.16665600  0.50000000  0.46434600  1
  Cu  Cu20  1  0.16665900  0.83334100  0.46434700  1
  Cu  Cu21  1  0.50000000  0.16665500  0.46434700  1
  Cu  Cu22  1  0.50000000  0.50000000  0.46434600  1
  Cu  Cu23  1  0.50000000  0.83334500  0.46434700  1
  Cu  Cu24  1  0.83334100  0.16665900  0.46434700  1
  Cu  Cu25  1  0.83334500  0.50000000  0.46434700  1
  Cu  Cu26  1  0.83334100  0.83334100  0.46434800  1
  H  H27  1  0.49999748  0.49999713  0.56030137  1
