# generated using pymatgen
data_Cu27HCO
_symmetry_space_group_name_H-M   'P 1'
_cell_length_a   7.56931200
_cell_length_b   7.57163409
_cell_length_c   24.95416000
_cell_angle_alpha   89.99856981
_cell_angle_beta   89.99866020
_cell_angle_gamma   89.99125989
_symmetry_Int_Tables_number   1
_chemical_formula_structural   Cu27HCO
_chemical_formula_sum   'Cu27 H1 C1 O1'
_cell_volume   1430.17431756
_cell_formula_units_Z   1
loop_
 _symmetry_equiv_pos_site_id
 _symmetry_equiv_pos_as_xyz
  1  'x, y, z'
loop_
 _atom_site_type_symbol
 _atom_site_label
 _atom_site_symmetry_multiplicity
 _atom_site_fract_x
 _atom_site_fract_y
 _atom_site_fract_z
 _atom_site_occupancy
  Cu  Cu0  1  0.99984409  0.99995531  0.53583256  1
  Cu  Cu1  1  0.99564276  0.33321197  0.53558702  1
  Cu  Cu2  1  0.99979678  0.66678218  0.53577662  1
  Cu  Cu3  1  0.33327090  0.99888105  0.53604081  1
  Cu  Cu4  1  0.32276932  0.33292420  0.53849518  1
  Cu  Cu5  1  0.33322777  0.66696047  0.53617214  1
  Cu  Cu6  1  0.66838766  0.99815211  0.53527677  1
  Cu  Cu7  1  0.67060861  0.33358934  0.53892987  1
  Cu  Cu8  1  0.66861307  0.66982779  0.53518306  1
  Cu  Cu9  1  0.00000100  0.00000000  0.39285700  1
  Cu  Cu10  1  0.00000100  0.33333300  0.39285700  1
  Cu  Cu11  1  0.00000100  0.66666700  0.39285700  1
  Cu  Cu12  1  0.33333400  0.00000000  0.39285700  1
  Cu  Cu13  1  0.33333400  0.33333300  0.39285700  1
  Cu  Cu14  1  0.33333400  0.66666700  0.39285700  1
  Cu  Cu15  1  0.66666700  0.00000000  0.39285700  1
  Cu  Cu16  1  0.66666700  0.33333300  0.39285700  1
  Cu  Cu17  1  0.66666700  0.66666700  0.39285700  1
  Cu  Cu18  1  0.16666500  0.16666400  0.46428800  1
  Cu  Cu19  1  0.16666400  0.50000000  0.46428800  1
  Cu  Cu20  1  0.16666500  0.83333500  0.46428800  1
  Cu  Cu21  1  0.50000100  0.16666300  0.46428800  1
  Cu  Cu22  1  0.50000100  0.50000000  0.46428800  1
  Cu  Cu23  1  0.50000100  0.83333600  0.46428800  1
  Cu  Cu24  1  0.83333600  0.16666400  0.46428800  1
  Cu  Cu25  1  0.83333700  0.50000000  0.46428800  1
  Cu  Cu26  1  0.83333600  0.83333500  0.46428800  1
  C  C27  1  0.40548206  0.34352685  0.61106707  1
  H  H28  1  0.30822486  0.34749733  0.64474890  1
  O  O29  1  0.56479548  0.34328417  0.62304233  1
