# generated using pymatgen
data_Cu27N2
_symmetry_space_group_name_H-M   'P 1'
_cell_length_a   7.56629665
_cell_length_b   7.56629665
_cell_length_c   22.70406582
_cell_angle_alpha   86.87439516
_cell_angle_beta   86.87439516
_cell_angle_gamma   60.02635040
_symmetry_Int_Tables_number   1
_chemical_formula_structural   Cu27N2
_chemical_formula_sum   'Cu27 N2'
_cell_volume   1123.70819012
_cell_formula_units_Z   1
loop_
 _symmetry_equiv_pos_site_id
 _symmetry_equiv_pos_as_xyz
  1  'x, y, z'
loop_
 _atom_site_type_symbol
 _atom_site_label
 _atom_site_symmetry_multiplicity
 _atom_site_fract_x
 _atom_site_fract_y
 _atom_site_fract_z
 _atom_site_occupancy
  Cu  Cu0  1  0.28787900  0.28787900  0.40909100  1
  Cu  Cu1  1  0.28787900  0.62121200  0.40909100  1
  Cu  Cu2  1  0.28787900  0.95454600  0.40909100  1
  Cu  Cu3  1  0.62121200  0.28787900  0.40909100  1
  Cu  Cu4  1  0.62121200  0.62121200  0.40909100  1
  Cu  Cu5  1  0.62121200  0.95454500  0.40909100  1
  Cu  Cu6  1  0.95454600  0.28787900  0.40909100  1
  Cu  Cu7  1  0.95454500  0.62121200  0.40909100  1
  Cu  Cu8  1  0.95454500  0.95454500  0.40909100  1
  Cu  Cu9  1  0.16697225  0.16697221  0.49963234  1
  Cu  Cu10  1  0.16827862  0.49903411  0.50089813  1
  Cu  Cu11  1  0.16696475  0.83285198  0.49963071  1
  Cu  Cu12  1  0.49903409  0.16827863  0.50089813  1
  Cu  Cu13  1  0.49905467  0.49905472  0.50088656  1
  Cu  Cu14  1  0.50029142  0.83333125  0.49919854  1
  Cu  Cu15  1  0.83285203  0.16696475  0.49963072  1
  Cu  Cu16  1  0.83333123  0.50029146  0.49919854  1
  Cu  Cu17  1  0.83331847  0.83331853  0.49919633  1
  Cu  Cu18  1  0.04551843  0.04551846  0.59068235  1
  Cu  Cu19  1  0.04317865  0.37861811  0.58989174  1
  Cu  Cu20  1  0.04317158  0.71501299  0.58989489  1
  Cu  Cu21  1  0.37861810  0.04317866  0.58989175  1
  Cu  Cu22  1  0.37821637  0.37821636  0.59644534  1
  Cu  Cu23  1  0.37860330  0.71498297  0.58989612  1
  Cu  Cu24  1  0.71501299  0.04317161  0.58989489  1
  Cu  Cu25  1  0.71498292  0.37860337  0.58989613  1
  Cu  Cu26  1  0.71220358  0.71220360  0.59036218  1
  N  N27  1  0.36872125  0.36872124  0.68256699  1
  N  N28  1  0.36339947  0.36339946  0.73190199  1
