# generated using pymatgen
data_Cu27HCO
_symmetry_space_group_name_H-M   'P 1'
_cell_length_a   7.56931200
_cell_length_b   7.57163409
_cell_length_c   24.95416000
_cell_angle_alpha   89.99856981
_cell_angle_beta   89.99866020
_cell_angle_gamma   89.99125989
_symmetry_Int_Tables_number   1
_chemical_formula_structural   Cu27HCO
_chemical_formula_sum   'Cu27 H1 C1 O1'
_cell_volume   1430.17431756
_cell_formula_units_Z   1
loop_
 _symmetry_equiv_pos_site_id
 _symmetry_equiv_pos_as_xyz
  1  'x, y, z'
loop_
 _atom_site_type_symbol
 _atom_site_label
 _atom_site_symmetry_multiplicity
 _atom_site_fract_x
 _atom_site_fract_y
 _atom_site_fract_z
 _atom_site_occupancy
  Cu  Cu0  1  0.99880347  0.99896667  0.53622254  1
  Cu  Cu1  1  0.99436002  0.33381409  0.54136006  1
  Cu  Cu2  1  0.99901371  0.66870115  0.53587656  1
  Cu  Cu3  1  0.33390335  0.99970598  0.53625437  1
  Cu  Cu4  1  0.34725585  0.33483299  0.53942641  1
  Cu  Cu5  1  0.33382269  0.66970836  0.53582024  1
  Cu  Cu6  1  0.66663122  0.99936295  0.53596390  1
  Cu  Cu7  1  0.67059923  0.33304888  0.53557130  1
  Cu  Cu8  1  0.66661348  0.66685435  0.53602399  1
  Cu  Cu9  1  0.00000100  0.00000000  0.39285700  1
  Cu  Cu10  1  0.00000100  0.33333300  0.39285700  1
  Cu  Cu11  1  0.00000100  0.66666700  0.39285700  1
  Cu  Cu12  1  0.33333400  0.00000000  0.39285700  1
  Cu  Cu13  1  0.33333400  0.33333300  0.39285700  1
  Cu  Cu14  1  0.33333400  0.66666700  0.39285700  1
  Cu  Cu15  1  0.66666700  0.00000000  0.39285700  1
  Cu  Cu16  1  0.66666700  0.33333300  0.39285700  1
  Cu  Cu17  1  0.66666700  0.66666700  0.39285700  1
  Cu  Cu18  1  0.16666500  0.16666400  0.46428800  1
  Cu  Cu19  1  0.16666400  0.50000000  0.46428800  1
  Cu  Cu20  1  0.16666500  0.83333500  0.46428800  1
  Cu  Cu21  1  0.50000100  0.16666300  0.46428800  1
  Cu  Cu22  1  0.50000100  0.50000000  0.46428800  1
  Cu  Cu23  1  0.50000100  0.83333600  0.46428800  1
  Cu  Cu24  1  0.83333600  0.16666400  0.46428800  1
  Cu  Cu25  1  0.83333700  0.50000000  0.46428800  1
  Cu  Cu26  1  0.83333600  0.83333500  0.46428800  1
  C  C27  1  0.17492296  0.31394735  0.59312663  1
  H  H28  1  0.07768603  0.30382066  0.66459557  1
  O  O29  1  0.19216697  0.30464813  0.64479926  1
