# generated using pymatgen
data_Cu27CO
_symmetry_space_group_name_H-M   'P 1'
_cell_length_a   7.56629665
_cell_length_b   7.56629665
_cell_length_c   22.70406582
_cell_angle_alpha   86.87439516
_cell_angle_beta   86.87439516
_cell_angle_gamma   60.02635040
_symmetry_Int_Tables_number   1
_chemical_formula_structural   Cu27CO
_chemical_formula_sum   'Cu27 C1 O1'
_cell_volume   1123.70819012
_cell_formula_units_Z   1
loop_
 _symmetry_equiv_pos_site_id
 _symmetry_equiv_pos_as_xyz
  1  'x, y, z'
loop_
 _atom_site_type_symbol
 _atom_site_label
 _atom_site_symmetry_multiplicity
 _atom_site_fract_x
 _atom_site_fract_y
 _atom_site_fract_z
 _atom_site_occupancy
  Cu  Cu0  1  0.28787900  0.28787900  0.40909100  1
  Cu  Cu1  1  0.28787900  0.62121200  0.40909100  1
  Cu  Cu2  1  0.28787900  0.95454600  0.40909100  1
  Cu  Cu3  1  0.62121200  0.28787900  0.40909100  1
  Cu  Cu4  1  0.62121200  0.62121200  0.40909100  1
  Cu  Cu5  1  0.62121200  0.95454500  0.40909100  1
  Cu  Cu6  1  0.95454600  0.28787900  0.40909100  1
  Cu  Cu7  1  0.95454500  0.62121200  0.40909100  1
  Cu  Cu8  1  0.95454500  0.95454500  0.40909100  1
  Cu  Cu9  1  0.16647964  0.16624376  0.50118532  1
  Cu  Cu10  1  0.16746234  0.49923052  0.50132909  1
  Cu  Cu11  1  0.16767822  0.83210494  0.50142193  1
  Cu  Cu12  1  0.49944676  0.16722349  0.50133753  1
  Cu  Cu13  1  0.50005637  0.49983571  0.49915698  1
  Cu  Cu14  1  0.49942188  0.83205092  0.50139554  1
  Cu  Cu15  1  0.83239502  0.16738393  0.50140912  1
  Cu  Cu16  1  0.83232258  0.49921476  0.50137468  1
  Cu  Cu17  1  0.83325325  0.83303281  0.50035354  1
  Cu  Cu18  1  0.04561326  0.04495622  0.59297442  1
  Cu  Cu19  1  0.04523008  0.37742545  0.59293912  1
  Cu  Cu20  1  0.04259126  0.71286983  0.59202463  1
  Cu  Cu21  1  0.37785070  0.04469039  0.59294309  1
  Cu  Cu22  1  0.37631305  0.37583927  0.59438760  1
  Cu  Cu23  1  0.37681539  0.71403347  0.59494971  1
  Cu  Cu24  1  0.71331206  0.04212711  0.59201660  1
  Cu  Cu25  1  0.71486025  0.37618601  0.59480869  1
  Cu  Cu26  1  0.71321651  0.71280221  0.59205133  1
  O  O27  1  0.47554260  0.47249791  0.70756279  1
  C  C28  1  0.48214700  0.48038516  0.65486576  1
