# generated using pymatgen
data_Co27CO
_symmetry_space_group_name_H-M   'P 1'
_cell_length_a   7.20020400
_cell_length_b   7.22369791
_cell_length_c   21.95056060
_cell_angle_alpha   90.70782154
_cell_angle_beta   92.74453361
_cell_angle_gamma   114.11633735
_symmetry_Int_Tables_number   1
_chemical_formula_structural   Co27CO
_chemical_formula_sum   'Co27 C1 O1'
_cell_volume   1040.21162622
_cell_formula_units_Z   1
loop_
 _symmetry_equiv_pos_site_id
 _symmetry_equiv_pos_as_xyz
  1  'x, y, z'
loop_
 _atom_site_type_symbol
 _atom_site_label
 _atom_site_symmetry_multiplicity
 _atom_site_fract_x
 _atom_site_fract_y
 _atom_site_fract_z
 _atom_site_occupancy
  Co  Co0  1  0.28787700  0.18181700  0.40909100  1
  Co  Co1  1  0.28787700  0.51515000  0.40909100  1
  Co  Co2  1  0.28787700  0.84848400  0.40909100  1
  Co  Co3  1  0.62121100  0.18181700  0.40909100  1
  Co  Co4  1  0.62121100  0.51515000  0.40909100  1
  Co  Co5  1  0.62121100  0.84848400  0.40909100  1
  Co  Co6  1  0.95454400  0.18181700  0.40909100  1
  Co  Co7  1  0.95454400  0.51515000  0.40909100  1
  Co  Co8  1  0.95454400  0.84848400  0.40909100  1
  Co  Co9  1  0.18475000  0.98404400  0.49985500  1
  Co  Co10  1  0.18236400  0.31603000  0.49959700  1
  Co  Co11  1  0.18464700  0.65119000  0.49961800  1
  Co  Co12  1  0.51687500  0.98286800  0.49986600  1
  Co  Co13  1  0.51492000  0.31474800  0.49972400  1
  Co  Co14  1  0.51657000  0.64921600  0.49972400  1
  Co  Co15  1  0.85009800  0.98191900  0.49984500  1
  Co  Co16  1  0.84714200  0.31350100  0.49963400  1
  Co  Co17  1  0.84888300  0.64744600  0.49974600  1
  Co  Co18  1  0.07584788  0.11480477  0.59063340  1
  Co  Co19  1  0.07648776  0.45097381  0.59015395  1
  Co  Co20  1  0.07741041  0.78328741  0.59028454  1
  Co  Co21  1  0.41008627  0.11190241  0.59037339  1
  Co  Co22  1  0.41307061  0.44976184  0.59638382  1
  Co  Co23  1  0.41067875  0.78351628  0.59044307  1
  Co  Co24  1  0.74529900  0.11413395  0.59087765  1
  Co  Co25  1  0.74729785  0.44922662  0.59021223  1
  Co  Co26  1  0.74727096  0.78422037  0.59069682  1
  O  O27  1  0.41672536  0.45468842  0.72798156  1
  C  C28  1  0.41381236  0.45291175  0.67399686  1
