# generated using pymatgen
data_Sn36HCO
_symmetry_space_group_name_H-M   'P 1'
_cell_length_a   9.43221838
_cell_length_b   11.60326658
_cell_length_c   30.60418900
_cell_angle_alpha   90.03914768
_cell_angle_beta   90.23654075
_cell_angle_gamma   88.57775690
_symmetry_Int_Tables_number   1
_chemical_formula_structural   Sn36HCO
_chemical_formula_sum   'Sn36 H1 C1 O1'
_cell_volume   3348.40054919
_cell_formula_units_Z   1
loop_
 _symmetry_equiv_pos_site_id
 _symmetry_equiv_pos_as_xyz
  1  'x, y, z'
loop_
 _atom_site_type_symbol
 _atom_site_label
 _atom_site_symmetry_multiplicity
 _atom_site_fract_x
 _atom_site_fract_y
 _atom_site_fract_z
 _atom_site_occupancy
  Sn  Sn0  1  0.22511216  0.34877979  0.56358027  1
  Sn  Sn1  1  0.22179592  0.81820479  0.54962238  1
  Sn  Sn2  1  0.58551577  0.31134040  0.54915545  1
  Sn  Sn3  1  0.56040489  0.82055642  0.54614304  1
  Sn  Sn4  1  0.91321268  0.31552693  0.54848835  1
  Sn  Sn5  1  0.89304049  0.83173160  0.57297445  1
  Sn  Sn6  1  0.03972512  0.06502344  0.54558469  1
  Sn  Sn7  1  0.98852558  0.58274105  0.54439020  1
  Sn  Sn8  1  0.37008727  0.06889767  0.55040705  1
  Sn  Sn9  1  0.34930387  0.57725221  0.54378825  1
  Sn  Sn10  1  0.70809536  0.06160953  0.54544913  1
  Sn  Sn11  1  0.66607871  0.56424383  0.56629617  1
  Sn  Sn12  1  0.22994157  0.30606217  0.46542397  1
  Sn  Sn13  1  0.25146802  0.81855357  0.44987250  1
  Sn  Sn14  1  0.56582260  0.31311342  0.44907506  1
  Sn  Sn15  1  0.59139614  0.80955686  0.44637932  1
  Sn  Sn16  1  0.90377323  0.31050170  0.44887204  1
  Sn  Sn17  1  0.91288221  0.82070152  0.47289318  1
  Sn  Sn18  1  0.04383488  0.05538804  0.44713370  1
  Sn  Sn19  1  0.99529954  0.57447645  0.44494168  1
  Sn  Sn20  1  0.37797803  0.07014844  0.44970167  1
  Sn  Sn21  1  0.33191776  0.55029360  0.44574559  1
  Sn  Sn22  1  0.71081155  0.06435799  0.44738410  1
  Sn  Sn23  1  0.67253428  0.56033283  0.46650973  1
  Sn  Sn24  1  0.21579100  0.31083800  0.34996900  1
  Sn  Sn25  1  0.21579100  0.81083800  0.34996900  1
  Sn  Sn26  1  0.54912400  0.31083800  0.34996900  1
  Sn  Sn27  1  0.54912400  0.81083800  0.34996900  1
  Sn  Sn28  1  0.88245700  0.31083800  0.34996900  1
  Sn  Sn29  1  0.88245700  0.81083800  0.34996900  1
  Sn  Sn30  1  0.03172900  0.06063000  0.35002900  1
  Sn  Sn31  1  0.03172900  0.56063000  0.35002900  1
  Sn  Sn32  1  0.36506200  0.06063000  0.35002900  1
  Sn  Sn33  1  0.36506200  0.56063000  0.35002900  1
  Sn  Sn34  1  0.69839600  0.06063000  0.35002900  1
  Sn  Sn35  1  0.69839600  0.56063000  0.35002900  1
  C  C36  1  0.40953227  0.23955464  0.59142952  1
  H  H37  1  0.36080249  0.22425987  0.65378645  1
  O  O38  1  0.44283143  0.23638863  0.63435763  1
