# generated using pymatgen
data_Sn36H
_symmetry_space_group_name_H-M   'P 1'
_cell_length_a   9.43221838
_cell_length_b   11.60326658
_cell_length_c   30.60418900
_cell_angle_alpha   90.03914768
_cell_angle_beta   90.23654075
_cell_angle_gamma   88.57775690
_symmetry_Int_Tables_number   1
_chemical_formula_structural   Sn36H
_chemical_formula_sum   'Sn36 H1'
_cell_volume   3348.40054919
_cell_formula_units_Z   1
loop_
 _symmetry_equiv_pos_site_id
 _symmetry_equiv_pos_as_xyz
  1  'x, y, z'
loop_
 _atom_site_type_symbol
 _atom_site_label
 _atom_site_symmetry_multiplicity
 _atom_site_fract_x
 _atom_site_fract_y
 _atom_site_fract_z
 _atom_site_occupancy
  Sn  Sn0  1  0.22371004  0.30915068  0.54516449  1
  Sn  Sn1  1  0.22489954  0.80912840  0.54635036  1
  Sn  Sn2  1  0.55468859  0.31062534  0.55673085  1
  Sn  Sn3  1  0.56278564  0.81069399  0.54456898  1
  Sn  Sn4  1  0.88951500  0.31079632  0.55070234  1
  Sn  Sn5  1  0.89516492  0.81331275  0.56076187  1
  Sn  Sn6  1  0.03981415  0.06106657  0.54570620  1
  Sn  Sn7  1  0.03669968  0.56044195  0.54511008  1
  Sn  Sn8  1  0.36736689  0.05514093  0.56595516  1
  Sn  Sn9  1  0.36413853  0.56084588  0.56157688  1
  Sn  Sn10  1  0.70288697  0.06255950  0.54853745  1
  Sn  Sn11  1  0.70339758  0.55909406  0.55285991  1
  Sn  Sn12  1  0.22772591  0.30647592  0.44652314  1
  Sn  Sn13  1  0.24222545  0.81299196  0.44611686  1
  Sn  Sn14  1  0.55824877  0.31698819  0.44678796  1
  Sn  Sn15  1  0.57759540  0.81295123  0.44575561  1
  Sn  Sn16  1  0.89507848  0.31028163  0.45207590  1
  Sn  Sn17  1  0.90580736  0.81302678  0.46140834  1
  Sn  Sn18  1  0.02737335  0.05668561  0.44583329  1
  Sn  Sn19  1  0.01591824  0.56236408  0.44525971  1
  Sn  Sn20  1  0.35890655  0.05941181  0.46700723  1
  Sn  Sn21  1  0.34713139  0.55892624  0.46261583  1
  Sn  Sn22  1  0.68949096  0.06836174  0.44975978  1
  Sn  Sn23  1  0.68544047  0.55839492  0.45381936  1
  Sn  Sn24  1  0.21579100  0.31083800  0.34996900  1
  Sn  Sn25  1  0.21579100  0.81083800  0.34996900  1
  Sn  Sn26  1  0.54912400  0.31083800  0.34996900  1
  Sn  Sn27  1  0.54912400  0.81083800  0.34996900  1
  Sn  Sn28  1  0.88245700  0.31083800  0.34996900  1
  Sn  Sn29  1  0.88245700  0.81083800  0.34996900  1
  Sn  Sn30  1  0.03172900  0.06063000  0.35002900  1
  Sn  Sn31  1  0.03172900  0.56063000  0.35002900  1
  Sn  Sn32  1  0.36506200  0.06063000  0.35002900  1
  Sn  Sn33  1  0.36506200  0.56063000  0.35002900  1
  Sn  Sn34  1  0.69839600  0.06063000  0.35002900  1
  Sn  Sn35  1  0.69839600  0.56063000  0.35002900  1
  H  H36  1  0.54667681  0.31038956  0.61415980  1
