# generated using pymatgen
data_Cu27HCO
_symmetry_space_group_name_H-M   'P 1'
_cell_length_a   7.56629665
_cell_length_b   7.56629665
_cell_length_c   22.70406582
_cell_angle_alpha   86.87439516
_cell_angle_beta   86.87439516
_cell_angle_gamma   60.02635040
_symmetry_Int_Tables_number   1
_chemical_formula_structural   Cu27HCO
_chemical_formula_sum   'Cu27 H1 C1 O1'
_cell_volume   1123.70819012
_cell_formula_units_Z   1
loop_
 _symmetry_equiv_pos_site_id
 _symmetry_equiv_pos_as_xyz
  1  'x, y, z'
loop_
 _atom_site_type_symbol
 _atom_site_label
 _atom_site_symmetry_multiplicity
 _atom_site_fract_x
 _atom_site_fract_y
 _atom_site_fract_z
 _atom_site_occupancy
  Cu  Cu0  1  0.28787900  0.28787900  0.40909100  1
  Cu  Cu1  1  0.28787900  0.62121200  0.40909100  1
  Cu  Cu2  1  0.28787900  0.95454600  0.40909100  1
  Cu  Cu3  1  0.62121200  0.28787900  0.40909100  1
  Cu  Cu4  1  0.62121200  0.62121200  0.40909100  1
  Cu  Cu5  1  0.62121200  0.95454500  0.40909100  1
  Cu  Cu6  1  0.95454600  0.28787900  0.40909100  1
  Cu  Cu7  1  0.95454500  0.62121200  0.40909100  1
  Cu  Cu8  1  0.95454500  0.95454500  0.40909100  1
  Cu  Cu9  1  0.16536953  0.16613659  0.50107130  1
  Cu  Cu10  1  0.16716154  0.49832364  0.50151708  1
  Cu  Cu11  1  0.16467679  0.83303005  0.50076567  1
  Cu  Cu12  1  0.49739987  0.16781886  0.50139255  1
  Cu  Cu13  1  0.49850567  0.49968583  0.50078247  1
  Cu  Cu14  1  0.49891397  0.83240464  0.50095567  1
  Cu  Cu15  1  0.83077591  0.16684733  0.50141932  1
  Cu  Cu16  1  0.83106821  0.50005944  0.50094682  1
  Cu  Cu17  1  0.83210866  0.83321713  0.50076885  1
  Cu  Cu18  1  0.04333885  0.04506336  0.59328116  1
  Cu  Cu19  1  0.04180157  0.37803749  0.59212298  1
  Cu  Cu20  1  0.04087024  0.71350762  0.59274766  1
  Cu  Cu21  1  0.37594939  0.04362469  0.59241043  1
  Cu  Cu22  1  0.37728061  0.37907468  0.59553328  1
  Cu  Cu23  1  0.37308165  0.71518414  0.59182842  1
  Cu  Cu24  1  0.70996031  0.04366412  0.59297434  1
  Cu  Cu25  1  0.71336209  0.37782794  0.59264558  1
  Cu  Cu26  1  0.70968321  0.71235636  0.59233310  1
  C  C27  1  0.42385390  0.39320084  0.67800785  1
  H  H28  1  0.31977831  0.35432796  0.70571024  1
  O  O29  1  0.53914057  0.43222524  0.70351959  1
