# generated using pymatgen
data_Cu27H3N
_symmetry_space_group_name_H-M   'P 1'
_cell_length_a   7.56629665
_cell_length_b   7.56629665
_cell_length_c   22.70406582
_cell_angle_alpha   86.87439516
_cell_angle_beta   86.87439516
_cell_angle_gamma   60.02635040
_symmetry_Int_Tables_number   1
_chemical_formula_structural   Cu27H3N
_chemical_formula_sum   'Cu27 H3 N1'
_cell_volume   1123.70819012
_cell_formula_units_Z   1
loop_
 _symmetry_equiv_pos_site_id
 _symmetry_equiv_pos_as_xyz
  1  'x, y, z'
loop_
 _atom_site_type_symbol
 _atom_site_label
 _atom_site_symmetry_multiplicity
 _atom_site_fract_x
 _atom_site_fract_y
 _atom_site_fract_z
 _atom_site_occupancy
  Cu  Cu0  1  0.28787900  0.28787900  0.40909100  1
  Cu  Cu1  1  0.28787900  0.62121200  0.40909100  1
  Cu  Cu2  1  0.28787900  0.95454600  0.40909100  1
  Cu  Cu3  1  0.62121200  0.28787900  0.40909100  1
  Cu  Cu4  1  0.62121200  0.62121200  0.40909100  1
  Cu  Cu5  1  0.62121200  0.95454500  0.40909100  1
  Cu  Cu6  1  0.95454600  0.28787900  0.40909100  1
  Cu  Cu7  1  0.95454500  0.62121200  0.40909100  1
  Cu  Cu8  1  0.95454500  0.95454500  0.40909100  1
  Cu  Cu9  1  0.16664759  0.16657045  0.50081940  1
  Cu  Cu10  1  0.16857232  0.49879804  0.50178065  1
  Cu  Cu11  1  0.16676221  0.83329623  0.50083724  1
  Cu  Cu12  1  0.49888467  0.16852831  0.50182888  1
  Cu  Cu13  1  0.49886232  0.49873356  0.50185603  1
  Cu  Cu14  1  0.50078225  0.83291339  0.50031603  1
  Cu  Cu15  1  0.83343016  0.16647834  0.50086536  1
  Cu  Cu16  1  0.83305566  0.50060833  0.50032488  1
  Cu  Cu17  1  0.83303969  0.83303495  0.50032671  1
  Cu  Cu18  1  0.04549085  0.04522355  0.59345062  1
  Cu  Cu19  1  0.04293217  0.37843214  0.59177970  1
  Cu  Cu20  1  0.04298086  0.71507336  0.59168060  1
  Cu  Cu21  1  0.37871182  0.04277828  0.59170490  1
  Cu  Cu22  1  0.37822165  0.37821605  0.59690730  1
  Cu  Cu23  1  0.37869173  0.71483860  0.59188999  1
  Cu  Cu24  1  0.71502770  0.04294523  0.59191186  1
  Cu  Cu25  1  0.71499105  0.37841474  0.59182219  1
  Cu  Cu26  1  0.71220858  0.71193362  0.59276722  1
  N  N27  1  0.36442017  0.36896968  0.68746617  1
  H  H28  1  0.46404844  0.40624962  0.70464743  1
  H  H29  1  0.22053779  0.46944477  0.70353948  1
  H  H30  1  0.40070660  0.22573953  0.70400872  1
