# generated using pymatgen
data_Cu27HO
_symmetry_space_group_name_H-M   'P 1'
_cell_length_a   7.56629665
_cell_length_b   7.56629665
_cell_length_c   22.70406582
_cell_angle_alpha   86.87439516
_cell_angle_beta   86.87439516
_cell_angle_gamma   60.02635040
_symmetry_Int_Tables_number   1
_chemical_formula_structural   Cu27HO
_chemical_formula_sum   'Cu27 H1 O1'
_cell_volume   1123.70819012
_cell_formula_units_Z   1
loop_
 _symmetry_equiv_pos_site_id
 _symmetry_equiv_pos_as_xyz
  1  'x, y, z'
loop_
 _atom_site_type_symbol
 _atom_site_label
 _atom_site_symmetry_multiplicity
 _atom_site_fract_x
 _atom_site_fract_y
 _atom_site_fract_z
 _atom_site_occupancy
  Cu  Cu0  1  0.28787900  0.28787900  0.40909100  1
  Cu  Cu1  1  0.28787900  0.62121200  0.40909100  1
  Cu  Cu2  1  0.28787900  0.95454600  0.40909100  1
  Cu  Cu3  1  0.62121200  0.28787900  0.40909100  1
  Cu  Cu4  1  0.62121200  0.62121200  0.40909100  1
  Cu  Cu5  1  0.62121200  0.95454500  0.40909100  1
  Cu  Cu6  1  0.95454600  0.28787900  0.40909100  1
  Cu  Cu7  1  0.95454500  0.62121200  0.40909100  1
  Cu  Cu8  1  0.95454500  0.95454500  0.40909100  1
  Cu  Cu9  1  0.16689838  0.16689842  0.50098597  1
  Cu  Cu10  1  0.16759631  0.49939775  0.50115994  1
  Cu  Cu11  1  0.16687592  0.83268948  0.50098083  1
  Cu  Cu12  1  0.49939782  0.16759625  0.50115993  1
  Cu  Cu13  1  0.49939466  0.49939470  0.50114724  1
  Cu  Cu14  1  0.50037608  0.83308984  0.50076279  1
  Cu  Cu15  1  0.83268948  0.16687591  0.50098083  1
  Cu  Cu16  1  0.83308988  0.50037600  0.50076278  1
  Cu  Cu17  1  0.83307699  0.83307695  0.50076786  1
  Cu  Cu18  1  0.04541985  0.04541988  0.59263171  1
  Cu  Cu19  1  0.04261202  0.37866595  0.59228648  1
  Cu  Cu20  1  0.04258980  0.71509072  0.59228680  1
  Cu  Cu21  1  0.37866594  0.04261200  0.59228647  1
  Cu  Cu22  1  0.37885919  0.37885922  0.59240824  1
  Cu  Cu23  1  0.37862290  0.71509283  0.59227235  1
  Cu  Cu24  1  0.71509063  0.04258982  0.59228679  1
  Cu  Cu25  1  0.71509282  0.37862289  0.59227235  1
  Cu  Cu26  1  0.71212124  0.71212129  0.59199409  1
  O  O27  1  0.36944248  0.36944250  0.67323348  1
  H  H28  1  0.36527270  0.36527273  0.71622212  1
