# generated using pymatgen
data_Cu27CO
_symmetry_space_group_name_H-M   'P 1'
_cell_length_a   7.56629665
_cell_length_b   7.56629665
_cell_length_c   22.70406582
_cell_angle_alpha   86.87439516
_cell_angle_beta   86.87439516
_cell_angle_gamma   60.02635040
_symmetry_Int_Tables_number   1
_chemical_formula_structural   Cu27CO
_chemical_formula_sum   'Cu27 C1 O1'
_cell_volume   1123.70819012
_cell_formula_units_Z   1
loop_
 _symmetry_equiv_pos_site_id
 _symmetry_equiv_pos_as_xyz
  1  'x, y, z'
loop_
 _atom_site_type_symbol
 _atom_site_label
 _atom_site_symmetry_multiplicity
 _atom_site_fract_x
 _atom_site_fract_y
 _atom_site_fract_z
 _atom_site_occupancy
  Cu  Cu0  1  0.28787900  0.28787900  0.40909100  1
  Cu  Cu1  1  0.28787900  0.62121200  0.40909100  1
  Cu  Cu2  1  0.28787900  0.95454600  0.40909100  1
  Cu  Cu3  1  0.62121200  0.28787900  0.40909100  1
  Cu  Cu4  1  0.62121200  0.62121200  0.40909100  1
  Cu  Cu5  1  0.62121200  0.95454500  0.40909100  1
  Cu  Cu6  1  0.95454600  0.28787900  0.40909100  1
  Cu  Cu7  1  0.95454500  0.62121200  0.40909100  1
  Cu  Cu8  1  0.95454500  0.95454500  0.40909100  1
  Cu  Cu9  1  0.16689216  0.16690398  0.50079694  1
  Cu  Cu10  1  0.16854119  0.49890085  0.50140020  1
  Cu  Cu11  1  0.16684027  0.83285626  0.50078299  1
  Cu  Cu12  1  0.49889321  0.16854896  0.50138448  1
  Cu  Cu13  1  0.49888876  0.49889586  0.50143053  1
  Cu  Cu14  1  0.50012963  0.83332933  0.50040448  1
  Cu  Cu15  1  0.83282128  0.16686059  0.50078794  1
  Cu  Cu16  1  0.83330949  0.50013972  0.50040207  1
  Cu  Cu17  1  0.83325957  0.83329352  0.50041672  1
  Cu  Cu18  1  0.04543083  0.04548578  0.59234840  1
  Cu  Cu19  1  0.04290485  0.37864026  0.59195425  1
  Cu  Cu20  1  0.04283498  0.71512476  0.59193948  1
  Cu  Cu21  1  0.37856856  0.04298148  0.59195556  1
  Cu  Cu22  1  0.37853946  0.37894394  0.59607238  1
  Cu  Cu23  1  0.37854387  0.71512683  0.59191822  1
  Cu  Cu24  1  0.71501540  0.04293530  0.59194753  1
  Cu  Cu25  1  0.71504275  0.37861367  0.59192342  1
  Cu  Cu26  1  0.71209287  0.71213514  0.59224684  1
  O  O27  1  0.35913495  0.35031887  0.72813560  1
  C  C28  1  0.36677525  0.36179402  0.67691454  1
