# generated using pymatgen
data_Cu27HO2
_symmetry_space_group_name_H-M   'P 1'
_cell_length_a   7.56629665
_cell_length_b   7.56629665
_cell_length_c   22.70406582
_cell_angle_alpha   86.87439516
_cell_angle_beta   86.87439516
_cell_angle_gamma   60.02635040
_symmetry_Int_Tables_number   1
_chemical_formula_structural   Cu27HO2
_chemical_formula_sum   'Cu27 H1 O2'
_cell_volume   1123.70819012
_cell_formula_units_Z   1
loop_
 _symmetry_equiv_pos_site_id
 _symmetry_equiv_pos_as_xyz
  1  'x, y, z'
loop_
 _atom_site_type_symbol
 _atom_site_label
 _atom_site_symmetry_multiplicity
 _atom_site_fract_x
 _atom_site_fract_y
 _atom_site_fract_z
 _atom_site_occupancy
  Cu  Cu0  1  0.28787900  0.28787900  0.40909100  1
  Cu  Cu1  1  0.28787900  0.62121200  0.40909100  1
  Cu  Cu2  1  0.28787900  0.95454600  0.40909100  1
  Cu  Cu3  1  0.62121200  0.28787900  0.40909100  1
  Cu  Cu4  1  0.62121200  0.62121200  0.40909100  1
  Cu  Cu5  1  0.62121200  0.95454500  0.40909100  1
  Cu  Cu6  1  0.95454600  0.28787900  0.40909100  1
  Cu  Cu7  1  0.95454500  0.62121200  0.40909100  1
  Cu  Cu8  1  0.95454500  0.95454500  0.40909100  1
  Cu  Cu9  1  0.16558090  0.16957951  0.50126299  1
  Cu  Cu10  1  0.16799570  0.50106746  0.50238016  1
  Cu  Cu11  1  0.16525525  0.83603938  0.50104683  1
  Cu  Cu12  1  0.49799095  0.17016993  0.50240516  1
  Cu  Cu13  1  0.49712629  0.50098281  0.50239076  1
  Cu  Cu14  1  0.49902870  0.83557905  0.50094560  1
  Cu  Cu15  1  0.83132853  0.16956498  0.50124970  1
  Cu  Cu16  1  0.83182581  0.50270823  0.50095665  1
  Cu  Cu17  1  0.83221900  0.83528123  0.50090329  1
  Cu  Cu18  1  0.04343620  0.04927031  0.59334762  1
  Cu  Cu19  1  0.04074276  0.38337892  0.59285172  1
  Cu  Cu20  1  0.04193876  0.71896302  0.59283336  1
  Cu  Cu21  1  0.37624224  0.04686847  0.59285976  1
  Cu  Cu22  1  0.37442415  0.38464803  0.59824788  1
  Cu  Cu23  1  0.37527206  0.71925620  0.59271758  1
  Cu  Cu24  1  0.71390412  0.04626356  0.59258336  1
  Cu  Cu25  1  0.71185912  0.38319227  0.59296001  1
  Cu  Cu26  1  0.70984942  0.71639831  0.59280987  1
  O  O27  1  0.41380392  0.29005372  0.67968253  1
  O  O28  1  0.31887555  0.44177077  0.72712791  1
  H  H29  1  0.27136140  0.57422914  0.70521209  1
