# generated using pymatgen
data_Co27H
_symmetry_space_group_name_H-M   'P 1'
_cell_length_a   7.20020400
_cell_length_b   7.22369791
_cell_length_c   21.95056060
_cell_angle_alpha   90.70782154
_cell_angle_beta   92.74453361
_cell_angle_gamma   114.11633735
_symmetry_Int_Tables_number   1
_chemical_formula_structural   Co27H
_chemical_formula_sum   'Co27 H1'
_cell_volume   1040.21162622
_cell_formula_units_Z   1
loop_
 _symmetry_equiv_pos_site_id
 _symmetry_equiv_pos_as_xyz
  1  'x, y, z'
loop_
 _atom_site_type_symbol
 _atom_site_label
 _atom_site_symmetry_multiplicity
 _atom_site_fract_x
 _atom_site_fract_y
 _atom_site_fract_z
 _atom_site_occupancy
  Co  Co0  1  0.28787700  0.18181700  0.40909100  1
  Co  Co1  1  0.28787700  0.51515000  0.40909100  1
  Co  Co2  1  0.28787700  0.84848400  0.40909100  1
  Co  Co3  1  0.62121100  0.18181700  0.40909100  1
  Co  Co4  1  0.62121100  0.51515000  0.40909100  1
  Co  Co5  1  0.62121100  0.84848400  0.40909100  1
  Co  Co6  1  0.95454400  0.18181700  0.40909100  1
  Co  Co7  1  0.95454400  0.51515000  0.40909100  1
  Co  Co8  1  0.95454400  0.84848400  0.40909100  1
  Co  Co9  1  0.18499400  0.98444200  0.50007400  1
  Co  Co10  1  0.18221600  0.31631300  0.49975000  1
  Co  Co11  1  0.18477100  0.65168500  0.49982300  1
  Co  Co12  1  0.51698100  0.98278700  0.50011700  1
  Co  Co13  1  0.51479700  0.31463400  0.49999600  1
  Co  Co14  1  0.51636400  0.64898700  0.49995800  1
  Co  Co15  1  0.85022600  0.98187000  0.50004700  1
  Co  Co16  1  0.84688300  0.31332500  0.49982700  1
  Co  Co17  1  0.84845500  0.64704400  0.49988200  1
  Co  Co18  1  0.07846235  0.11782432  0.59036668  1
  Co  Co19  1  0.07735913  0.45127052  0.59123915  1
  Co  Co20  1  0.07678109  0.78478523  0.59049815  1
  Co  Co21  1  0.41121521  0.11507096  0.59091358  1
  Co  Co22  1  0.41306880  0.44747834  0.59134846  1
  Co  Co23  1  0.41090162  0.78367370  0.59161439  1
  Co  Co24  1  0.74575261  0.11670214  0.59077708  1
  Co  Co25  1  0.74597324  0.45051623  0.59061729  1
  Co  Co26  1  0.74445422  0.78320494  0.59037445  1
  H  H27  1  0.30440579  0.57004482  0.63520477  1
