# generated using pymatgen
data_Co27HCO
_symmetry_space_group_name_H-M   'P 1'
_cell_length_a   7.20020400
_cell_length_b   7.22369791
_cell_length_c   21.95056060
_cell_angle_alpha   90.70782154
_cell_angle_beta   92.74453361
_cell_angle_gamma   114.11633735
_symmetry_Int_Tables_number   1
_chemical_formula_structural   Co27HCO
_chemical_formula_sum   'Co27 H1 C1 O1'
_cell_volume   1040.21162622
_cell_formula_units_Z   1
loop_
 _symmetry_equiv_pos_site_id
 _symmetry_equiv_pos_as_xyz
  1  'x, y, z'
loop_
 _atom_site_type_symbol
 _atom_site_label
 _atom_site_symmetry_multiplicity
 _atom_site_fract_x
 _atom_site_fract_y
 _atom_site_fract_z
 _atom_site_occupancy
  Co  Co0  1  0.28787700  0.18181700  0.40909100  1
  Co  Co1  1  0.28787700  0.51515000  0.40909100  1
  Co  Co2  1  0.28787700  0.84848400  0.40909100  1
  Co  Co3  1  0.62121100  0.18181700  0.40909100  1
  Co  Co4  1  0.62121100  0.51515000  0.40909100  1
  Co  Co5  1  0.62121100  0.84848400  0.40909100  1
  Co  Co6  1  0.95454400  0.18181700  0.40909100  1
  Co  Co7  1  0.95454400  0.51515000  0.40909100  1
  Co  Co8  1  0.95454400  0.84848400  0.40909100  1
  Co  Co9  1  0.18475000  0.98404400  0.49985500  1
  Co  Co10  1  0.18236400  0.31603000  0.49959700  1
  Co  Co11  1  0.18464700  0.65119000  0.49961800  1
  Co  Co12  1  0.51687500  0.98286800  0.49986600  1
  Co  Co13  1  0.51492000  0.31474800  0.49972400  1
  Co  Co14  1  0.51657000  0.64921600  0.49972400  1
  Co  Co15  1  0.85009800  0.98191900  0.49984500  1
  Co  Co16  1  0.84714200  0.31350100  0.49963400  1
  Co  Co17  1  0.84888300  0.64744600  0.49974600  1
  Co  Co18  1  0.08801434  0.12144798  0.59621825  1
  Co  Co19  1  0.07744713  0.45622984  0.59458578  1
  Co  Co20  1  0.08031277  0.78680004  0.59441858  1
  Co  Co21  1  0.41926173  0.11233928  0.59406573  1
  Co  Co22  1  0.41705767  0.44973735  0.59556207  1
  Co  Co23  1  0.41317870  0.78117599  0.59348697  1
  Co  Co24  1  0.74977344  0.11377918  0.59391155  1
  Co  Co25  1  0.74595994  0.44842226  0.59445196  1
  Co  Co26  1  0.74858214  0.78180588  0.59466195  1
  C  C27  1  0.20718434  0.34781049  0.64953392  1
  H  H28  1  0.26863771  0.26725308  0.72960471  1
  O  O29  1  0.22169355  0.36685372  0.71176917  1
