# generated using pymatgen
data_Cu27HCO
_symmetry_space_group_name_H-M   'P 1'
_cell_length_a   7.56629665
_cell_length_b   7.56629665
_cell_length_c   22.70406582
_cell_angle_alpha   86.87439516
_cell_angle_beta   86.87439516
_cell_angle_gamma   60.02635040
_symmetry_Int_Tables_number   1
_chemical_formula_structural   Cu27HCO
_chemical_formula_sum   'Cu27 H1 C1 O1'
_cell_volume   1123.70819012
_cell_formula_units_Z   1
loop_
 _symmetry_equiv_pos_site_id
 _symmetry_equiv_pos_as_xyz
  1  'x, y, z'
loop_
 _atom_site_type_symbol
 _atom_site_label
 _atom_site_symmetry_multiplicity
 _atom_site_fract_x
 _atom_site_fract_y
 _atom_site_fract_z
 _atom_site_occupancy
  Cu  Cu0  1  0.28787900  0.28787900  0.40909100  1
  Cu  Cu1  1  0.28787900  0.62121200  0.40909100  1
  Cu  Cu2  1  0.28787900  0.95454600  0.40909100  1
  Cu  Cu3  1  0.62121200  0.28787900  0.40909100  1
  Cu  Cu4  1  0.62121200  0.62121200  0.40909100  1
  Cu  Cu5  1  0.62121200  0.95454500  0.40909100  1
  Cu  Cu6  1  0.95454600  0.28787900  0.40909100  1
  Cu  Cu7  1  0.95454500  0.62121200  0.40909100  1
  Cu  Cu8  1  0.95454500  0.95454500  0.40909100  1
  Cu  Cu9  1  0.16625342  0.16694589  0.50142626  1
  Cu  Cu10  1  0.16876272  0.49892184  0.50216824  1
  Cu  Cu11  1  0.16571926  0.83328380  0.50099029  1
  Cu  Cu12  1  0.49831670  0.16890687  0.50192969  1
  Cu  Cu13  1  0.49926068  0.50048502  0.50144436  1
  Cu  Cu14  1  0.49976374  0.83351799  0.50123296  1
  Cu  Cu15  1  0.83177813  0.16728672  0.50148342  1
  Cu  Cu16  1  0.83250108  0.50109666  0.50109409  1
  Cu  Cu17  1  0.83300417  0.83399983  0.50083856  1
  Cu  Cu18  1  0.04496682  0.04598365  0.59350260  1
  Cu  Cu19  1  0.04386371  0.37943599  0.59280000  1
  Cu  Cu20  1  0.04236371  0.71487490  0.59345622  1
  Cu  Cu21  1  0.37758389  0.04529915  0.59305042  1
  Cu  Cu22  1  0.38023013  0.38067461  0.59765123  1
  Cu  Cu23  1  0.37512286  0.71693926  0.59243561  1
  Cu  Cu24  1  0.71192012  0.04465996  0.59365909  1
  Cu  Cu25  1  0.71624223  0.37932985  0.59235931  1
  Cu  Cu26  1  0.71144496  0.71394738  0.59307985  1
  C  C27  1  0.42185640  0.38917507  0.68076519  1
  H  H28  1  0.31248787  0.35545391  0.70767509  1
  O  O29  1  0.53868774  0.42150487  0.70854786  1
