# generated using pymatgen
data_Cu27HN2
_symmetry_space_group_name_H-M   'P 1'
_cell_length_a   7.56629665
_cell_length_b   7.56629665
_cell_length_c   22.70406582
_cell_angle_alpha   86.87439516
_cell_angle_beta   86.87439516
_cell_angle_gamma   60.02635040
_symmetry_Int_Tables_number   1
_chemical_formula_structural   Cu27HN2
_chemical_formula_sum   'Cu27 H1 N2'
_cell_volume   1123.70819012
_cell_formula_units_Z   1
loop_
 _symmetry_equiv_pos_site_id
 _symmetry_equiv_pos_as_xyz
  1  'x, y, z'
loop_
 _atom_site_type_symbol
 _atom_site_label
 _atom_site_symmetry_multiplicity
 _atom_site_fract_x
 _atom_site_fract_y
 _atom_site_fract_z
 _atom_site_occupancy
  Cu  Cu0  1  0.28787900  0.28787900  0.40909100  1
  Cu  Cu1  1  0.28787900  0.62121200  0.40909100  1
  Cu  Cu2  1  0.28787900  0.95454600  0.40909100  1
  Cu  Cu3  1  0.62121200  0.28787900  0.40909100  1
  Cu  Cu4  1  0.62121200  0.62121200  0.40909100  1
  Cu  Cu5  1  0.62121200  0.95454500  0.40909100  1
  Cu  Cu6  1  0.95454600  0.28787900  0.40909100  1
  Cu  Cu7  1  0.95454500  0.62121200  0.40909100  1
  Cu  Cu8  1  0.95454500  0.95454500  0.40909100  1
  Cu  Cu9  1  0.16659454  0.16691918  0.50112148  1
  Cu  Cu10  1  0.16853831  0.49930757  0.50170763  1
  Cu  Cu11  1  0.16651176  0.83354187  0.50108285  1
  Cu  Cu12  1  0.49910958  0.16843791  0.50184835  1
  Cu  Cu13  1  0.49869672  0.49907811  0.50191545  1
  Cu  Cu14  1  0.50033261  0.83329824  0.50045734  1
  Cu  Cu15  1  0.83282742  0.16702704  0.50121465  1
  Cu  Cu16  1  0.83328560  0.50005107  0.50074653  1
  Cu  Cu17  1  0.83326874  0.83308035  0.50045441  1
  Cu  Cu18  1  0.04536887  0.04541522  0.59330458  1
  Cu  Cu19  1  0.04267520  0.37870939  0.59243011  1
  Cu  Cu20  1  0.04274731  0.71590722  0.59194613  1
  Cu  Cu21  1  0.37900048  0.04225817  0.59203859  1
  Cu  Cu22  1  0.37653360  0.37851901  0.59594342  1
  Cu  Cu23  1  0.37802468  0.71645888  0.59198942  1
  Cu  Cu24  1  0.71576093  0.04175092  0.59198069  1
  Cu  Cu25  1  0.71530521  0.37875694  0.59268100  1
  Cu  Cu26  1  0.71208210  0.71241716  0.59236126  1
  N  N27  1  0.38004099  0.36975894  0.67676672  1
  N  N28  1  0.34935503  0.36297170  0.72874676  1
  H  H29  1  0.45626898  0.36115969  0.75695004  1
