# generated using pymatgen
data_Co27CO
_symmetry_space_group_name_H-M   'P 1'
_cell_length_a   7.20020400
_cell_length_b   7.22369791
_cell_length_c   21.95056060
_cell_angle_alpha   90.70782154
_cell_angle_beta   92.74453361
_cell_angle_gamma   114.11633735
_symmetry_Int_Tables_number   1
_chemical_formula_structural   Co27CO
_chemical_formula_sum   'Co27 C1 O1'
_cell_volume   1040.21162622
_cell_formula_units_Z   1
loop_
 _symmetry_equiv_pos_site_id
 _symmetry_equiv_pos_as_xyz
  1  'x, y, z'
loop_
 _atom_site_type_symbol
 _atom_site_label
 _atom_site_symmetry_multiplicity
 _atom_site_fract_x
 _atom_site_fract_y
 _atom_site_fract_z
 _atom_site_occupancy
  Co  Co0  1  0.28787700  0.18181700  0.40909100  1
  Co  Co1  1  0.28787700  0.51515000  0.40909100  1
  Co  Co2  1  0.28787700  0.84848400  0.40909100  1
  Co  Co3  1  0.62121100  0.18181700  0.40909100  1
  Co  Co4  1  0.62121100  0.51515000  0.40909100  1
  Co  Co5  1  0.62121100  0.84848400  0.40909100  1
  Co  Co6  1  0.95454400  0.18181700  0.40909100  1
  Co  Co7  1  0.95454400  0.51515000  0.40909100  1
  Co  Co8  1  0.95454400  0.84848400  0.40909100  1
  Co  Co9  1  0.18486200  0.98388800  0.49989800  1
  Co  Co10  1  0.18251700  0.31587800  0.49964500  1
  Co  Co11  1  0.18474300  0.65098200  0.49965500  1
  Co  Co12  1  0.51698300  0.98274100  0.49989600  1
  Co  Co13  1  0.51504900  0.31464400  0.49975700  1
  Co  Co14  1  0.51666200  0.64907600  0.49976100  1
  Co  Co15  1  0.85028800  0.98183900  0.49988500  1
  Co  Co16  1  0.84734200  0.31342900  0.49967500  1
  Co  Co17  1  0.84906700  0.64734800  0.49978800  1
  Co  Co18  1  0.07741596  0.11486713  0.59077525  1
  Co  Co19  1  0.07724075  0.45074133  0.59036603  1
  Co  Co20  1  0.07775791  0.78333944  0.59023778  1
  Co  Co21  1  0.41284684  0.11403016  0.59040545  1
  Co  Co22  1  0.41342685  0.45012846  0.59658263  1
  Co  Co23  1  0.41115089  0.78402601  0.59048686  1
  Co  Co24  1  0.74743107  0.11676942  0.59071700  1
  Co  Co25  1  0.74784974  0.45068391  0.58995392  1
  Co  Co26  1  0.74712018  0.78548711  0.59080381  1
  O  O27  1  0.41768695  0.45466487  0.72818510  1
  C  C28  1  0.41425347  0.45307270  0.67439222  1
