# generated using pymatgen
data_Cu27CO
_symmetry_space_group_name_H-M   'P 1'
_cell_length_a   7.56629665
_cell_length_b   7.56629665
_cell_length_c   22.70406582
_cell_angle_alpha   86.87439516
_cell_angle_beta   86.87439516
_cell_angle_gamma   60.02635040
_symmetry_Int_Tables_number   1
_chemical_formula_structural   Cu27CO
_chemical_formula_sum   'Cu27 C1 O1'
_cell_volume   1123.70819012
_cell_formula_units_Z   1
loop_
 _symmetry_equiv_pos_site_id
 _symmetry_equiv_pos_as_xyz
  1  'x, y, z'
loop_
 _atom_site_type_symbol
 _atom_site_label
 _atom_site_symmetry_multiplicity
 _atom_site_fract_x
 _atom_site_fract_y
 _atom_site_fract_z
 _atom_site_occupancy
  Cu  Cu0  1  0.28787900  0.28787900  0.40909100  1
  Cu  Cu1  1  0.28787900  0.62121200  0.40909100  1
  Cu  Cu2  1  0.28787900  0.95454600  0.40909100  1
  Cu  Cu3  1  0.62121200  0.28787900  0.40909100  1
  Cu  Cu4  1  0.62121200  0.62121200  0.40909100  1
  Cu  Cu5  1  0.62121200  0.95454500  0.40909100  1
  Cu  Cu6  1  0.95454600  0.28787900  0.40909100  1
  Cu  Cu7  1  0.95454500  0.62121200  0.40909100  1
  Cu  Cu8  1  0.95454500  0.95454500  0.40909100  1
  Cu  Cu9  1  0.16648229  0.16625034  0.50118007  1
  Cu  Cu10  1  0.16726558  0.49956277  0.50142464  1
  Cu  Cu11  1  0.16766915  0.83196680  0.50155438  1
  Cu  Cu12  1  0.49969498  0.16708711  0.50143017  1
  Cu  Cu13  1  0.49995134  0.49971851  0.50000147  1
  Cu  Cu14  1  0.49972066  0.83183851  0.50155485  1
  Cu  Cu15  1  0.83225934  0.16738916  0.50152815  1
  Cu  Cu16  1  0.83209148  0.49958290  0.50152372  1
  Cu  Cu17  1  0.83328635  0.83313431  0.50022779  1
  Cu  Cu18  1  0.04564101  0.04501710  0.59309387  1
  Cu  Cu19  1  0.04509382  0.37766038  0.59302970  1
  Cu  Cu20  1  0.04200938  0.71324345  0.59252443  1
  Cu  Cu21  1  0.37798431  0.04460959  0.59304829  1
  Cu  Cu22  1  0.37542648  0.37505792  0.59483508  1
  Cu  Cu23  1  0.37631668  0.71495141  0.59556539  1
  Cu  Cu24  1  0.71358742  0.04164268  0.59249540  1
  Cu  Cu25  1  0.71593553  0.37567438  0.59539050  1
  Cu  Cu26  1  0.71343779  0.71312670  0.59263074  1
  O  O27  1  0.47526153  0.47168432  0.70727117  1
  C  C28  1  0.48213251  0.48013328  0.65412672  1
