# generated using pymatgen
data_Cu27H
_symmetry_space_group_name_H-M   'P 1'
_cell_length_a   7.56629665
_cell_length_b   7.56629665
_cell_length_c   22.70406582
_cell_angle_alpha   86.87439516
_cell_angle_beta   86.87439516
_cell_angle_gamma   60.02635040
_symmetry_Int_Tables_number   1
_chemical_formula_structural   Cu27H
_chemical_formula_sum   'Cu27 H1'
_cell_volume   1123.70819012
_cell_formula_units_Z   1
loop_
 _symmetry_equiv_pos_site_id
 _symmetry_equiv_pos_as_xyz
  1  'x, y, z'
loop_
 _atom_site_type_symbol
 _atom_site_label
 _atom_site_symmetry_multiplicity
 _atom_site_fract_x
 _atom_site_fract_y
 _atom_site_fract_z
 _atom_site_occupancy
  Cu  Cu0  1  0.28787900  0.28787900  0.40909100  1
  Cu  Cu1  1  0.28787900  0.62121200  0.40909100  1
  Cu  Cu2  1  0.28787900  0.95454600  0.40909100  1
  Cu  Cu3  1  0.62121200  0.28787900  0.40909100  1
  Cu  Cu4  1  0.62121200  0.62121200  0.40909100  1
  Cu  Cu5  1  0.62121200  0.95454500  0.40909100  1
  Cu  Cu6  1  0.95454600  0.28787900  0.40909100  1
  Cu  Cu7  1  0.95454500  0.62121200  0.40909100  1
  Cu  Cu8  1  0.95454500  0.95454500  0.40909100  1
  Cu  Cu9  1  0.16665443  0.16665437  0.50058702  1
  Cu  Cu10  1  0.16791621  0.49958862  0.50105498  1
  Cu  Cu11  1  0.16791047  0.83231371  0.50105753  1
  Cu  Cu12  1  0.49958862  0.16791619  0.50105497  1
  Cu  Cu13  1  0.50012371  0.50012373  0.49943003  1
  Cu  Cu14  1  0.49959644  0.83231135  0.50105268  1
  Cu  Cu15  1  0.83231374  0.16791045  0.50105749  1
  Cu  Cu16  1  0.83231141  0.49959645  0.50105265  1
  Cu  Cu17  1  0.83335915  0.83335908  0.50028637  1
  Cu  Cu18  1  0.04575849  0.04575843  0.59193359  1
  Cu  Cu19  1  0.04575829  0.37825517  0.59192551  1
  Cu  Cu20  1  0.04324102  0.71317690  0.59248902  1
  Cu  Cu21  1  0.37825527  0.04575821  0.59192555  1
  Cu  Cu22  1  0.37748036  0.37748028  0.59384150  1
  Cu  Cu23  1  0.37748083  0.71418936  0.59385047  1
  Cu  Cu24  1  0.71317703  0.04324089  0.59248899  1
  Cu  Cu25  1  0.71418951  0.37748079  0.59385032  1
  Cu  Cu26  1  0.71317954  0.71317928  0.59248224  1
  H  H27  1  0.48548615  0.48548558  0.63262816  1
