# generated using pymatgen
data_Cu27O
_symmetry_space_group_name_H-M   'P 1'
_cell_length_a   7.56629665
_cell_length_b   7.56629665
_cell_length_c   22.70406582
_cell_angle_alpha   86.87439516
_cell_angle_beta   86.87439516
_cell_angle_gamma   60.02635040
_symmetry_Int_Tables_number   1
_chemical_formula_structural   Cu27O
_chemical_formula_sum   'Cu27 O1'
_cell_volume   1123.70819012
_cell_formula_units_Z   1
loop_
 _symmetry_equiv_pos_site_id
 _symmetry_equiv_pos_as_xyz
  1  'x, y, z'
loop_
 _atom_site_type_symbol
 _atom_site_label
 _atom_site_symmetry_multiplicity
 _atom_site_fract_x
 _atom_site_fract_y
 _atom_site_fract_z
 _atom_site_occupancy
  Cu  Cu0  1  0.28787900  0.28787900  0.40909100  1
  Cu  Cu1  1  0.28787900  0.62121200  0.40909100  1
  Cu  Cu2  1  0.28787900  0.95454600  0.40909100  1
  Cu  Cu3  1  0.62121200  0.28787900  0.40909100  1
  Cu  Cu4  1  0.62121200  0.62121200  0.40909100  1
  Cu  Cu5  1  0.62121200  0.95454500  0.40909100  1
  Cu  Cu6  1  0.95454600  0.28787900  0.40909100  1
  Cu  Cu7  1  0.95454500  0.62121200  0.40909100  1
  Cu  Cu8  1  0.95454500  0.95454500  0.40909100  1
  Cu  Cu9  1  0.16697997  0.16698003  0.50090019  1
  Cu  Cu10  1  0.16819500  0.49905658  0.50118437  1
  Cu  Cu11  1  0.16696087  0.83247506  0.50089827  1
  Cu  Cu12  1  0.49905658  0.16819500  0.50118437  1
  Cu  Cu13  1  0.49905483  0.49905486  0.50117488  1
  Cu  Cu14  1  0.50043775  0.83300794  0.50090432  1
  Cu  Cu15  1  0.83247507  0.16696082  0.50089826  1
  Cu  Cu16  1  0.83300792  0.50043773  0.50090431  1
  Cu  Cu17  1  0.83299288  0.83299294  0.50090849  1
  Cu  Cu18  1  0.04539319  0.04539326  0.59245131  1
  Cu  Cu19  1  0.04282507  0.37849942  0.59226068  1
  Cu  Cu20  1  0.04280547  0.71491066  0.59225460  1
  Cu  Cu21  1  0.37849939  0.04282512  0.59226067  1
  Cu  Cu22  1  0.37851094  0.37851098  0.59445398  1
  Cu  Cu23  1  0.37847226  0.71490555  0.59223517  1
  Cu  Cu24  1  0.71491064  0.04280547  0.59225459  1
  Cu  Cu25  1  0.71490549  0.37847231  0.59223517  1
  Cu  Cu26  1  0.71209057  0.71209063  0.59190372  1
  O  O27  1  0.36974969  0.36974969  0.67308972  1
