# generated using pymatgen
data_Cu27CO2
_symmetry_space_group_name_H-M   'P 1'
_cell_length_a   7.56629665
_cell_length_b   7.56629665
_cell_length_c   22.70406582
_cell_angle_alpha   86.87439516
_cell_angle_beta   86.87439516
_cell_angle_gamma   60.02635040
_symmetry_Int_Tables_number   1
_chemical_formula_structural   Cu27CO2
_chemical_formula_sum   'Cu27 C1 O2'
_cell_volume   1123.70819012
_cell_formula_units_Z   1
loop_
 _symmetry_equiv_pos_site_id
 _symmetry_equiv_pos_as_xyz
  1  'x, y, z'
loop_
 _atom_site_type_symbol
 _atom_site_label
 _atom_site_symmetry_multiplicity
 _atom_site_fract_x
 _atom_site_fract_y
 _atom_site_fract_z
 _atom_site_occupancy
  Cu  Cu0  1  0.28787900  0.28787900  0.40909100  1
  Cu  Cu1  1  0.28787900  0.62121200  0.40909100  1
  Cu  Cu2  1  0.28787900  0.95454600  0.40909100  1
  Cu  Cu3  1  0.62121200  0.28787900  0.40909100  1
  Cu  Cu4  1  0.62121200  0.62121200  0.40909100  1
  Cu  Cu5  1  0.62121200  0.95454500  0.40909100  1
  Cu  Cu6  1  0.95454600  0.28787900  0.40909100  1
  Cu  Cu7  1  0.95454500  0.62121200  0.40909100  1
  Cu  Cu8  1  0.95454500  0.95454500  0.40909100  1
  Cu  Cu9  1  0.16625142  0.16656277  0.50115560  1
  Cu  Cu10  1  0.16755606  0.49887514  0.50130840  1
  Cu  Cu11  1  0.16650224  0.83247218  0.50141289  1
  Cu  Cu12  1  0.49886782  0.16771742  0.50136058  1
  Cu  Cu13  1  0.49879526  0.49903508  0.50130264  1
  Cu  Cu14  1  0.50032314  0.83285733  0.50122170  1
  Cu  Cu15  1  0.83265915  0.16663667  0.50115687  1
  Cu  Cu16  1  0.83277337  0.49987961  0.50106912  1
  Cu  Cu17  1  0.83244581  0.83287937  0.50117556  1
  Cu  Cu18  1  0.04433572  0.04568625  0.59331694  1
  Cu  Cu19  1  0.04420660  0.37802604  0.59277528  1
  Cu  Cu20  1  0.04249753  0.71335718  0.59251128  1
  Cu  Cu21  1  0.37747433  0.04333415  0.59244936  1
  Cu  Cu22  1  0.37770426  0.37819161  0.59670779  1
  Cu  Cu23  1  0.37893067  0.71348577  0.59256065  1
  Cu  Cu24  1  0.71387828  0.04321592  0.59243047  1
  Cu  Cu25  1  0.71257031  0.37804021  0.59274935  1
  Cu  Cu26  1  0.71189753  0.71085653  0.59340358  1
  C  C27  1  0.36926909  0.37080684  0.68605608  1
  O  O28  1  0.28185268  0.54096535  0.70966507  1
  O  O29  1  0.45237626  0.19571143  0.70979943  1
