# generated using pymatgen
data_Cu27H
_symmetry_space_group_name_H-M   'P 1'
_cell_length_a   7.56931200
_cell_length_b   7.57163409
_cell_length_c   24.95416000
_cell_angle_alpha   89.99856981
_cell_angle_beta   89.99866020
_cell_angle_gamma   89.99125989
_symmetry_Int_Tables_number   1
_chemical_formula_structural   Cu27H
_chemical_formula_sum   'Cu27 H1'
_cell_volume   1430.17431756
_cell_formula_units_Z   1
loop_
 _symmetry_equiv_pos_site_id
 _symmetry_equiv_pos_as_xyz
  1  'x, y, z'
loop_
 _atom_site_type_symbol
 _atom_site_label
 _atom_site_symmetry_multiplicity
 _atom_site_fract_x
 _atom_site_fract_y
 _atom_site_fract_z
 _atom_site_occupancy
  Cu  Cu0  1  0.99999654  0.99999570  0.53661294  1
  Cu  Cu1  1  0.99999608  0.33390450  0.53609376  1
  Cu  Cu2  1  0.99999007  0.66608442  0.53609264  1
  Cu  Cu3  1  0.33390708  0.99999514  0.53609554  1
  Cu  Cu4  1  0.33240750  0.33240037  0.53729447  1
  Cu  Cu5  1  0.33240444  0.66759751  0.53729283  1
  Cu  Cu6  1  0.66608314  0.99998880  0.53609424  1
  Cu  Cu7  1  0.66759211  0.33239706  0.53729276  1
  Cu  Cu8  1  0.66758873  0.66759400  0.53729540  1
  Cu  Cu9  1  0.00000100  0.00000000  0.39285700  1
  Cu  Cu10  1  0.00000100  0.33333300  0.39285700  1
  Cu  Cu11  1  0.00000100  0.66666700  0.39285700  1
  Cu  Cu12  1  0.33333400  0.00000000  0.39285700  1
  Cu  Cu13  1  0.33333400  0.33333300  0.39285700  1
  Cu  Cu14  1  0.33333400  0.66666700  0.39285700  1
  Cu  Cu15  1  0.66666700  0.00000000  0.39285700  1
  Cu  Cu16  1  0.66666700  0.33333300  0.39285700  1
  Cu  Cu17  1  0.66666700  0.66666700  0.39285700  1
  Cu  Cu18  1  0.16666000  0.16665900  0.46436800  1
  Cu  Cu19  1  0.16665600  0.50000000  0.46436800  1
  Cu  Cu20  1  0.16666000  0.83334000  0.46436800  1
  Cu  Cu21  1  0.50000000  0.16665500  0.46436800  1
  Cu  Cu22  1  0.50000000  0.49999900  0.46436700  1
  Cu  Cu23  1  0.50000000  0.83334400  0.46436800  1
  Cu  Cu24  1  0.83334000  0.16665900  0.46436800  1
  Cu  Cu25  1  0.83334500  0.50000000  0.46436800  1
  Cu  Cu26  1  0.83334100  0.83334000  0.46436900  1
  H  H27  1  0.49999915  0.49999924  0.55733961  1
