# generated using pymatgen
data_Cu27HCO
_symmetry_space_group_name_H-M   'P 1'
_cell_length_a   7.56629665
_cell_length_b   7.56629665
_cell_length_c   22.70406582
_cell_angle_alpha   86.87439516
_cell_angle_beta   86.87439516
_cell_angle_gamma   60.02635040
_symmetry_Int_Tables_number   1
_chemical_formula_structural   Cu27HCO
_chemical_formula_sum   'Cu27 H1 C1 O1'
_cell_volume   1123.70819012
_cell_formula_units_Z   1
loop_
 _symmetry_equiv_pos_site_id
 _symmetry_equiv_pos_as_xyz
  1  'x, y, z'
loop_
 _atom_site_type_symbol
 _atom_site_label
 _atom_site_symmetry_multiplicity
 _atom_site_fract_x
 _atom_site_fract_y
 _atom_site_fract_z
 _atom_site_occupancy
  Cu  Cu0  1  0.28787900  0.28787900  0.40909100  1
  Cu  Cu1  1  0.28787900  0.62121200  0.40909100  1
  Cu  Cu2  1  0.28787900  0.95454600  0.40909100  1
  Cu  Cu3  1  0.62121200  0.28787900  0.40909100  1
  Cu  Cu4  1  0.62121200  0.62121200  0.40909100  1
  Cu  Cu5  1  0.62121200  0.95454500  0.40909100  1
  Cu  Cu6  1  0.95454600  0.28787900  0.40909100  1
  Cu  Cu7  1  0.95454500  0.62121200  0.40909100  1
  Cu  Cu8  1  0.95454500  0.95454500  0.40909100  1
  Cu  Cu9  1  0.16891669  0.16983384  0.50084395  1
  Cu  Cu10  1  0.16889818  0.50180863  0.50023601  1
  Cu  Cu11  1  0.16925819  0.83554740  0.50109620  1
  Cu  Cu12  1  0.50090473  0.16979420  0.50029410  1
  Cu  Cu13  1  0.50210110  0.50313255  0.50046383  1
  Cu  Cu14  1  0.50068551  0.83885539  0.50185640  1
  Cu  Cu15  1  0.83467561  0.17025389  0.50105956  1
  Cu  Cu16  1  0.83758900  0.50193274  0.50173105  1
  Cu  Cu17  1  0.83484967  0.83569294  0.50113178  1
  Cu  Cu18  1  0.04695772  0.04873585  0.59232752  1
  Cu  Cu19  1  0.04493431  0.38383767  0.59638728  1
  Cu  Cu20  1  0.04796394  0.71859631  0.59227142  1
  Cu  Cu21  1  0.38116193  0.04916447  0.59683961  1
  Cu  Cu22  1  0.38941634  0.39029161  0.59243094  1
  Cu  Cu23  1  0.38290652  0.71972711  0.59233296  1
  Cu  Cu24  1  0.71730268  0.04942493  0.59219218  1
  Cu  Cu25  1  0.71735066  0.38497692  0.59219417  1
  Cu  Cu26  1  0.71488262  0.71774006  0.59290385  1
  C  C27  1  0.27268830  0.28235957  0.64918418  1
  H  H28  1  0.34502232  0.33379413  0.72436728  1
  O  O29  1  0.26557038  0.27766422  0.70696086  1
