# generated using pymatgen
data_Cu27O
_symmetry_space_group_name_H-M   'P 1'
_cell_length_a   7.56629665
_cell_length_b   7.56629665
_cell_length_c   22.70406582
_cell_angle_alpha   86.87439516
_cell_angle_beta   86.87439516
_cell_angle_gamma   60.02635040
_symmetry_Int_Tables_number   1
_chemical_formula_structural   Cu27O
_chemical_formula_sum   'Cu27 O1'
_cell_volume   1123.70819012
_cell_formula_units_Z   1
loop_
 _symmetry_equiv_pos_site_id
 _symmetry_equiv_pos_as_xyz
  1  'x, y, z'
loop_
 _atom_site_type_symbol
 _atom_site_label
 _atom_site_symmetry_multiplicity
 _atom_site_fract_x
 _atom_site_fract_y
 _atom_site_fract_z
 _atom_site_occupancy
  Cu  Cu0  1  0.28787900  0.28787900  0.40909100  1
  Cu  Cu1  1  0.28787900  0.62121200  0.40909100  1
  Cu  Cu2  1  0.28787900  0.95454600  0.40909100  1
  Cu  Cu3  1  0.62121200  0.28787900  0.40909100  1
  Cu  Cu4  1  0.62121200  0.62121200  0.40909100  1
  Cu  Cu5  1  0.62121200  0.95454500  0.40909100  1
  Cu  Cu6  1  0.95454600  0.28787900  0.40909100  1
  Cu  Cu7  1  0.95454500  0.62121200  0.40909100  1
  Cu  Cu8  1  0.95454500  0.95454500  0.40909100  1
  Cu  Cu9  1  0.16937688  0.16936820  0.50121356  1
  Cu  Cu10  1  0.16930903  0.50191095  0.50127838  1
  Cu  Cu11  1  0.16960336  0.83551024  0.50061841  1
  Cu  Cu12  1  0.50192175  0.16929911  0.50127942  1
  Cu  Cu13  1  0.50075895  0.50074931  0.50082204  1
  Cu  Cu14  1  0.50070916  0.83917482  0.50080337  1
  Cu  Cu15  1  0.83552170  0.16959160  0.50061830  1
  Cu  Cu16  1  0.83918541  0.50069891  0.50080404  1
  Cu  Cu17  1  0.83555422  0.83554231  0.50060915  1
  Cu  Cu18  1  0.04781869  0.04780310  0.59179191  1
  Cu  Cu19  1  0.03763806  0.38830091  0.59507545  1
  Cu  Cu20  1  0.04776334  0.71963997  0.59189537  1
  Cu  Cu21  1  0.38831263  0.03762781  0.59507773  1
  Cu  Cu22  1  0.38840403  0.38839147  0.59515406  1
  Cu  Cu23  1  0.38368421  0.71594005  0.59077247  1
  Cu  Cu24  1  0.71965803  0.04774622  0.59189557  1
  Cu  Cu25  1  0.71595551  0.38366951  0.59077144  1
  Cu  Cu26  1  0.71598636  0.71597122  0.59080897  1
  O  O27  1  0.26618243  0.26617549  0.64319882  1
