# generated using pymatgen
data_Cu27CO2
_symmetry_space_group_name_H-M   'P 1'
_cell_length_a   7.56931200
_cell_length_b   7.57163409
_cell_length_c   24.95416000
_cell_angle_alpha   89.99856981
_cell_angle_beta   89.99866020
_cell_angle_gamma   89.99125989
_symmetry_Int_Tables_number   1
_chemical_formula_structural   Cu27CO2
_chemical_formula_sum   'Cu27 C1 O2'
_cell_volume   1430.17431756
_cell_formula_units_Z   1
loop_
 _symmetry_equiv_pos_site_id
 _symmetry_equiv_pos_as_xyz
  1  'x, y, z'
loop_
 _atom_site_type_symbol
 _atom_site_label
 _atom_site_symmetry_multiplicity
 _atom_site_fract_x
 _atom_site_fract_y
 _atom_site_fract_z
 _atom_site_occupancy
  Cu  Cu0  1  0.99983333  0.99996881  0.53588237  1
  Cu  Cu1  1  0.99972259  0.33333835  0.53564679  1
  Cu  Cu2  1  0.99983593  0.66666475  0.53588508  1
  Cu  Cu3  1  0.33334065  0.99952902  0.53576776  1
  Cu  Cu4  1  0.33333924  0.33334115  0.53327041  1
  Cu  Cu5  1  0.33333781  0.66711107  0.53577106  1
  Cu  Cu6  1  0.66679994  0.99997092  0.53588535  1
  Cu  Cu7  1  0.66692052  0.33333623  0.53564880  1
  Cu  Cu8  1  0.66680578  0.66667131  0.53588801  1
  Cu  Cu9  1  0.00000100  0.00000000  0.39285700  1
  Cu  Cu10  1  0.00000100  0.33333300  0.39285700  1
  Cu  Cu11  1  0.00000100  0.66666700  0.39285700  1
  Cu  Cu12  1  0.33333400  0.00000000  0.39285700  1
  Cu  Cu13  1  0.33333400  0.33333300  0.39285700  1
  Cu  Cu14  1  0.33333400  0.66666700  0.39285700  1
  Cu  Cu15  1  0.66666700  0.00000000  0.39285700  1
  Cu  Cu16  1  0.66666700  0.33333300  0.39285700  1
  Cu  Cu17  1  0.66666700  0.66666700  0.39285700  1
  Cu  Cu18  1  0.16666700  0.16666600  0.46428600  1
  Cu  Cu19  1  0.16666700  0.50000000  0.46428600  1
  Cu  Cu20  1  0.16666700  0.83333300  0.46428600  1
  Cu  Cu21  1  0.50000100  0.16666600  0.46428600  1
  Cu  Cu22  1  0.50000100  0.50000000  0.46428600  1
  Cu  Cu23  1  0.50000100  0.83333300  0.46428600  1
  Cu  Cu24  1  0.83333400  0.16666600  0.46428600  1
  Cu  Cu25  1  0.83333400  0.50000000  0.46428600  1
  Cu  Cu26  1  0.83333400  0.83333300  0.46428600  1
  C  C27  1  0.33316721  0.33328356  0.64951735  1
  O  O28  1  0.33322525  0.48818606  0.64931242  1
  O  O29  1  0.33312148  0.17830687  0.64931259  1
