# generated using pymatgen
data_Co27CO2
_symmetry_space_group_name_H-M   'P 1'
_cell_length_a   7.20020400
_cell_length_b   7.22369791
_cell_length_c   21.95056060
_cell_angle_alpha   90.70782154
_cell_angle_beta   92.74453361
_cell_angle_gamma   114.11633735
_symmetry_Int_Tables_number   1
_chemical_formula_structural   Co27CO2
_chemical_formula_sum   'Co27 C1 O2'
_cell_volume   1040.21162622
_cell_formula_units_Z   1
loop_
 _symmetry_equiv_pos_site_id
 _symmetry_equiv_pos_as_xyz
  1  'x, y, z'
loop_
 _atom_site_type_symbol
 _atom_site_label
 _atom_site_symmetry_multiplicity
 _atom_site_fract_x
 _atom_site_fract_y
 _atom_site_fract_z
 _atom_site_occupancy
  Co  Co0  1  0.28787700  0.18181700  0.40909100  1
  Co  Co1  1  0.28787700  0.51515000  0.40909100  1
  Co  Co2  1  0.28787700  0.84848400  0.40909100  1
  Co  Co3  1  0.62121100  0.18181700  0.40909100  1
  Co  Co4  1  0.62121100  0.51515000  0.40909100  1
  Co  Co5  1  0.62121100  0.84848400  0.40909100  1
  Co  Co6  1  0.95454400  0.18181700  0.40909100  1
  Co  Co7  1  0.95454400  0.51515000  0.40909100  1
  Co  Co8  1  0.95454400  0.84848400  0.40909100  1
  Co  Co9  1  0.18599600  0.97999300  0.49700200  1
  Co  Co10  1  0.18617600  0.31279600  0.49715500  1
  Co  Co11  1  0.18497900  0.64569600  0.49700600  1
  Co  Co12  1  0.51840700  0.97839700  0.49707800  1
  Co  Co13  1  0.51881700  0.31157400  0.49718100  1
  Co  Co14  1  0.51736300  0.64402700  0.49707800  1
  Co  Co15  1  0.85233000  0.97945600  0.49691600  1
  Co  Co16  1  0.85273300  0.31276800  0.49702200  1
  Co  Co17  1  0.85143700  0.64525400  0.49699500  1
  Co  Co18  1  0.07533365  0.11592461  0.58682946  1
  Co  Co19  1  0.07814806  0.45115366  0.58828908  1
  Co  Co20  1  0.07535797  0.78185035  0.58736046  1
  Co  Co21  1  0.41180478  0.11417424  0.59625370  1
  Co  Co22  1  0.41338063  0.45791000  0.59073629  1
  Co  Co23  1  0.40879582  0.78333912  0.58720986  1
  Co  Co24  1  0.74608037  0.12090666  0.58716918  1
  Co  Co25  1  0.74777215  0.45547702  0.58751180  1
  Co  Co26  1  0.74650867  0.78838724  0.58746243  1
  C  C27  1  0.43290356  0.40104835  0.67609985  1
  O  O28  1  0.45730228  0.52415562  0.71847781  1
  O  O29  1  0.41274768  0.21399078  0.68097637  1
