# generated using pymatgen
data_Cu27CO2
_symmetry_space_group_name_H-M   'P 1'
_cell_length_a   7.56629665
_cell_length_b   7.56629665
_cell_length_c   22.70406582
_cell_angle_alpha   86.87439516
_cell_angle_beta   86.87439516
_cell_angle_gamma   60.02635040
_symmetry_Int_Tables_number   1
_chemical_formula_structural   Cu27CO2
_chemical_formula_sum   'Cu27 C1 O2'
_cell_volume   1123.70819012
_cell_formula_units_Z   1
loop_
 _symmetry_equiv_pos_site_id
 _symmetry_equiv_pos_as_xyz
  1  'x, y, z'
loop_
 _atom_site_type_symbol
 _atom_site_label
 _atom_site_symmetry_multiplicity
 _atom_site_fract_x
 _atom_site_fract_y
 _atom_site_fract_z
 _atom_site_occupancy
  Cu  Cu0  1  0.28787900  0.28787900  0.40909100  1
  Cu  Cu1  1  0.28787900  0.62121200  0.40909100  1
  Cu  Cu2  1  0.28787900  0.95454600  0.40909100  1
  Cu  Cu3  1  0.62121200  0.28787900  0.40909100  1
  Cu  Cu4  1  0.62121200  0.62121200  0.40909100  1
  Cu  Cu5  1  0.62121200  0.95454500  0.40909100  1
  Cu  Cu6  1  0.95454600  0.28787900  0.40909100  1
  Cu  Cu7  1  0.95454500  0.62121200  0.40909100  1
  Cu  Cu8  1  0.95454500  0.95454500  0.40909100  1
  Cu  Cu9  1  0.16615305  0.16683678  0.50104826  1
  Cu  Cu10  1  0.16721311  0.49925589  0.50155620  1
  Cu  Cu11  1  0.16652284  0.83259143  0.50132248  1
  Cu  Cu12  1  0.49887068  0.16778535  0.50143528  1
  Cu  Cu13  1  0.49875080  0.49944720  0.50155968  1
  Cu  Cu14  1  0.49998361  0.83332945  0.50117307  1
  Cu  Cu15  1  0.83252538  0.16691526  0.50105974  1
  Cu  Cu16  1  0.83277525  0.49988691  0.50114729  1
  Cu  Cu17  1  0.83251132  0.83328329  0.50115510  1
  Cu  Cu18  1  0.04446294  0.04587823  0.59318700  1
  Cu  Cu19  1  0.04430214  0.37831447  0.59304098  1
  Cu  Cu20  1  0.04273985  0.71342031  0.59265396  1
  Cu  Cu21  1  0.37733250  0.04400370  0.59256691  1
  Cu  Cu22  1  0.37781937  0.37852917  0.59688949  1
  Cu  Cu23  1  0.37912046  0.71365053  0.59269371  1
  Cu  Cu24  1  0.71383747  0.04383934  0.59257378  1
  Cu  Cu25  1  0.71257528  0.37837516  0.59305033  1
  Cu  Cu26  1  0.71190140  0.71153603  0.59296511  1
  C  C27  1  0.36866649  0.37078151  0.68977733  1
  O  O28  1  0.28045513  0.54339581  0.70965885  1
  O  O29  1  0.45331700  0.19352071  0.70944123  1
