# generated using pymatgen
data_Cu27HCO2
_symmetry_space_group_name_H-M   'P 1'
_cell_length_a   7.56629665
_cell_length_b   7.56629665
_cell_length_c   22.70406582
_cell_angle_alpha   86.87439516
_cell_angle_beta   86.87439516
_cell_angle_gamma   60.02635040
_symmetry_Int_Tables_number   1
_chemical_formula_structural   Cu27HCO2
_chemical_formula_sum   'Cu27 H1 C1 O2'
_cell_volume   1123.70819012
_cell_formula_units_Z   1
loop_
 _symmetry_equiv_pos_site_id
 _symmetry_equiv_pos_as_xyz
  1  'x, y, z'
loop_
 _atom_site_type_symbol
 _atom_site_label
 _atom_site_symmetry_multiplicity
 _atom_site_fract_x
 _atom_site_fract_y
 _atom_site_fract_z
 _atom_site_occupancy
  Cu  Cu0  1  0.28787900  0.28787900  0.40909100  1
  Cu  Cu1  1  0.28787900  0.62121200  0.40909100  1
  Cu  Cu2  1  0.28787900  0.95454600  0.40909100  1
  Cu  Cu3  1  0.62121200  0.28787900  0.40909100  1
  Cu  Cu4  1  0.62121200  0.62121200  0.40909100  1
  Cu  Cu5  1  0.62121200  0.95454500  0.40909100  1
  Cu  Cu6  1  0.95454600  0.28787900  0.40909100  1
  Cu  Cu7  1  0.95454500  0.62121200  0.40909100  1
  Cu  Cu8  1  0.95454500  0.95454500  0.40909100  1
  Cu  Cu9  1  0.16675457  0.16664243  0.50046208  1
  Cu  Cu10  1  0.16860156  0.49874343  0.50173255  1
  Cu  Cu11  1  0.16682733  0.83287099  0.50059447  1
  Cu  Cu12  1  0.49884535  0.16850336  0.50159782  1
  Cu  Cu13  1  0.49880450  0.49873749  0.50171269  1
  Cu  Cu14  1  0.50047841  0.83307706  0.50024468  1
  Cu  Cu15  1  0.83321262  0.16661970  0.50046440  1
  Cu  Cu16  1  0.83311359  0.50051083  0.50008494  1
  Cu  Cu17  1  0.83311574  0.83307925  0.50025137  1
  Cu  Cu18  1  0.04550146  0.04525609  0.59229543  1
  Cu  Cu19  1  0.04303961  0.37846090  0.59129149  1
  Cu  Cu20  1  0.04329842  0.71433212  0.59159764  1
  Cu  Cu21  1  0.37835835  0.04309913  0.59144440  1
  Cu  Cu22  1  0.37906858  0.37669831  0.59639648  1
  Cu  Cu23  1  0.37878527  0.71431312  0.59157295  1
  Cu  Cu24  1  0.71504486  0.04309043  0.59145093  1
  Cu  Cu25  1  0.71503666  0.37842863  0.59126562  1
  Cu  Cu26  1  0.71216915  0.71199068  0.59173477  1
  C  C27  1  0.36411905  0.35948554  0.73936328  1
  O  O28  1  0.43981119  0.19755940  0.77004963  1
  O  O29  1  0.36594364  0.37455467  0.68305044  1
  H  H30  1  0.28594886  0.50873117  0.76172728  1
