# generated using pymatgen
data_Cu27H3N
_symmetry_space_group_name_H-M   'P 1'
_cell_length_a   7.56629665
_cell_length_b   7.56629665
_cell_length_c   22.70406582
_cell_angle_alpha   86.87439516
_cell_angle_beta   86.87439516
_cell_angle_gamma   60.02635040
_symmetry_Int_Tables_number   1
_chemical_formula_structural   Cu27H3N
_chemical_formula_sum   'Cu27 H3 N1'
_cell_volume   1123.70819012
_cell_formula_units_Z   1
loop_
 _symmetry_equiv_pos_site_id
 _symmetry_equiv_pos_as_xyz
  1  'x, y, z'
loop_
 _atom_site_type_symbol
 _atom_site_label
 _atom_site_symmetry_multiplicity
 _atom_site_fract_x
 _atom_site_fract_y
 _atom_site_fract_z
 _atom_site_occupancy
  Cu  Cu0  1  0.28787900  0.28787900  0.40909100  1
  Cu  Cu1  1  0.28787900  0.62121200  0.40909100  1
  Cu  Cu2  1  0.28787900  0.95454600  0.40909100  1
  Cu  Cu3  1  0.62121200  0.28787900  0.40909100  1
  Cu  Cu4  1  0.62121200  0.62121200  0.40909100  1
  Cu  Cu5  1  0.62121200  0.95454500  0.40909100  1
  Cu  Cu6  1  0.95454600  0.28787900  0.40909100  1
  Cu  Cu7  1  0.95454500  0.62121200  0.40909100  1
  Cu  Cu8  1  0.95454500  0.95454500  0.40909100  1
  Cu  Cu9  1  0.16669600  0.16663266  0.50070427  1
  Cu  Cu10  1  0.16889221  0.49864759  0.50180417  1
  Cu  Cu11  1  0.16681755  0.83326399  0.50071920  1
  Cu  Cu12  1  0.49873918  0.16885042  0.50185211  1
  Cu  Cu13  1  0.49870527  0.49860587  0.50187669  1
  Cu  Cu14  1  0.50079046  0.83294072  0.50024560  1
  Cu  Cu15  1  0.83338535  0.16653072  0.50074695  1
  Cu  Cu16  1  0.83310159  0.50060975  0.50025197  1
  Cu  Cu17  1  0.83307015  0.83305760  0.50025557  1
  Cu  Cu18  1  0.04551649  0.04528566  0.59322660  1
  Cu  Cu19  1  0.04317914  0.37846498  0.59159868  1
  Cu  Cu20  1  0.04323270  0.71492400  0.59147738  1
  Cu  Cu21  1  0.37871576  0.04304563  0.59150778  1
  Cu  Cu22  1  0.37813362  0.37814442  0.59773423  1
  Cu  Cu23  1  0.37868213  0.71472270  0.59169296  1
  Cu  Cu24  1  0.71489866  0.04318067  0.59172146  1
  Cu  Cu25  1  0.71485387  0.37845666  0.59160295  1
  Cu  Cu26  1  0.71222591  0.71199152  0.59254976  1
  N  N27  1  0.36451491  0.36883956  0.68820937  1
  H  H28  1  0.46420908  0.40593461  0.70548553  1
  H  H29  1  0.22085563  0.46922160  0.70456388  1
  H  H30  1  0.40104123  0.22570815  0.70489935  1
