# generated using pymatgen
data_Cu27CO2
_symmetry_space_group_name_H-M   'P 1'
_cell_length_a   7.56629665
_cell_length_b   7.56629665
_cell_length_c   22.70406582
_cell_angle_alpha   86.87439516
_cell_angle_beta   86.87439516
_cell_angle_gamma   60.02635040
_symmetry_Int_Tables_number   1
_chemical_formula_structural   Cu27CO2
_chemical_formula_sum   'Cu27 C1 O2'
_cell_volume   1123.70819012
_cell_formula_units_Z   1
loop_
 _symmetry_equiv_pos_site_id
 _symmetry_equiv_pos_as_xyz
  1  'x, y, z'
loop_
 _atom_site_type_symbol
 _atom_site_label
 _atom_site_symmetry_multiplicity
 _atom_site_fract_x
 _atom_site_fract_y
 _atom_site_fract_z
 _atom_site_occupancy
  Cu  Cu0  1  0.28787900  0.28787900  0.40909100  1
  Cu  Cu1  1  0.28787900  0.62121200  0.40909100  1
  Cu  Cu2  1  0.28787900  0.95454600  0.40909100  1
  Cu  Cu3  1  0.62121200  0.28787900  0.40909100  1
  Cu  Cu4  1  0.62121200  0.62121200  0.40909100  1
  Cu  Cu5  1  0.62121200  0.95454500  0.40909100  1
  Cu  Cu6  1  0.95454600  0.28787900  0.40909100  1
  Cu  Cu7  1  0.95454500  0.62121200  0.40909100  1
  Cu  Cu8  1  0.95454500  0.95454500  0.40909100  1
  Cu  Cu9  1  0.16639613  0.16664225  0.50030239  1
  Cu  Cu10  1  0.16568215  0.50057367  0.49968395  1
  Cu  Cu11  1  0.16650841  0.83334662  0.50039319  1
  Cu  Cu12  1  0.50043533  0.16575300  0.49965280  1
  Cu  Cu13  1  0.50035034  0.50056677  0.49968333  1
  Cu  Cu14  1  0.50009018  0.83327352  0.50033913  1
  Cu  Cu15  1  0.83339623  0.16662292  0.50030534  1
  Cu  Cu16  1  0.83316704  0.50010853  0.50026692  1
  Cu  Cu17  1  0.83304181  0.83326355  0.50033843  1
  Cu  Cu18  1  0.04516752  0.04558494  0.59187242  1
  Cu  Cu19  1  0.04526987  0.37884747  0.59140163  1
  Cu  Cu20  1  0.04503389  0.71200568  0.59142065  1
  Cu  Cu21  1  0.37839471  0.04549473  0.59136622  1
  Cu  Cu22  1  0.37891098  0.37914226  0.58865071  1
  Cu  Cu23  1  0.37900336  0.71201994  0.59141373  1
  Cu  Cu24  1  0.71216340  0.04550379  0.59136184  1
  Cu  Cu25  1  0.71193044  0.37886674  0.59138533  1
  Cu  Cu26  1  0.71194493  0.71198986  0.59187038  1
  C  C27  1  0.36392742  0.36439830  0.72362969  1
  O  O28  1  0.27500935  0.54326763  0.72347246  1
  O  O29  1  0.45294635  0.18550469  0.72324334  1
