# generated using pymatgen
data_Cu27HCO2
_symmetry_space_group_name_H-M   'P 1'
_cell_length_a   7.56629665
_cell_length_b   7.56629665
_cell_length_c   22.70406582
_cell_angle_alpha   86.87439516
_cell_angle_beta   86.87439516
_cell_angle_gamma   60.02635040
_symmetry_Int_Tables_number   1
_chemical_formula_structural   Cu27HCO2
_chemical_formula_sum   'Cu27 H1 C1 O2'
_cell_volume   1123.70819012
_cell_formula_units_Z   1
loop_
 _symmetry_equiv_pos_site_id
 _symmetry_equiv_pos_as_xyz
  1  'x, y, z'
loop_
 _atom_site_type_symbol
 _atom_site_label
 _atom_site_symmetry_multiplicity
 _atom_site_fract_x
 _atom_site_fract_y
 _atom_site_fract_z
 _atom_site_occupancy
  Cu  Cu0  1  0.28787900  0.28787900  0.40909100  1
  Cu  Cu1  1  0.28787900  0.62121200  0.40909100  1
  Cu  Cu2  1  0.28787900  0.95454600  0.40909100  1
  Cu  Cu3  1  0.62121200  0.28787900  0.40909100  1
  Cu  Cu4  1  0.62121200  0.62121200  0.40909100  1
  Cu  Cu5  1  0.62121200  0.95454500  0.40909100  1
  Cu  Cu6  1  0.95454600  0.28787900  0.40909100  1
  Cu  Cu7  1  0.95454500  0.62121200  0.40909100  1
  Cu  Cu8  1  0.95454500  0.95454500  0.40909100  1
  Cu  Cu9  1  0.16676341  0.16666207  0.50118967  1
  Cu  Cu10  1  0.16862545  0.49872975  0.50170135  1
  Cu  Cu11  1  0.16682717  0.83276566  0.50124263  1
  Cu  Cu12  1  0.49897584  0.16838364  0.50154176  1
  Cu  Cu13  1  0.49891723  0.49874368  0.50170656  1
  Cu  Cu14  1  0.50086037  0.83304966  0.50091458  1
  Cu  Cu15  1  0.83302713  0.16668883  0.50120105  1
  Cu  Cu16  1  0.83322211  0.50009698  0.50107098  1
  Cu  Cu17  1  0.83266427  0.83305761  0.50091577  1
  Cu  Cu18  1  0.04531658  0.04548421  0.59338382  1
  Cu  Cu19  1  0.04433152  0.37817714  0.59282625  1
  Cu  Cu20  1  0.04237892  0.71506171  0.59212569  1
  Cu  Cu21  1  0.37825076  0.04359015  0.59241867  1
  Cu  Cu22  1  0.37802057  0.37857697  0.59782939  1
  Cu  Cu23  1  0.37900256  0.71504943  0.59212467  1
  Cu  Cu24  1  0.71457017  0.04358801  0.59242009  1
  Cu  Cu25  1  0.71375579  0.37818146  0.59284381  1
  Cu  Cu26  1  0.71237790  0.71139766  0.59297074  1
  C  C27  1  0.36526071  0.37517004  0.68433143  1
  O  O28  1  0.28430430  0.52620427  0.71551593  1
  O  O29  1  0.45639622  0.18479311  0.71051752  1
  H  H30  1  0.44196960  0.19913491  0.75413638  1
