# generated using pymatgen
data_Cu27HCO2
_symmetry_space_group_name_H-M   'P 1'
_cell_length_a   7.56629665
_cell_length_b   7.56629665
_cell_length_c   22.70406582
_cell_angle_alpha   86.87439516
_cell_angle_beta   86.87439516
_cell_angle_gamma   60.02635040
_symmetry_Int_Tables_number   1
_chemical_formula_structural   Cu27HCO2
_chemical_formula_sum   'Cu27 H1 C1 O2'
_cell_volume   1123.70819012
_cell_formula_units_Z   1
loop_
 _symmetry_equiv_pos_site_id
 _symmetry_equiv_pos_as_xyz
  1  'x, y, z'
loop_
 _atom_site_type_symbol
 _atom_site_label
 _atom_site_symmetry_multiplicity
 _atom_site_fract_x
 _atom_site_fract_y
 _atom_site_fract_z
 _atom_site_occupancy
  Cu  Cu0  1  0.28787900  0.28787900  0.40909100  1
  Cu  Cu1  1  0.28787900  0.62121200  0.40909100  1
  Cu  Cu2  1  0.28787900  0.95454600  0.40909100  1
  Cu  Cu3  1  0.62121200  0.28787900  0.40909100  1
  Cu  Cu4  1  0.62121200  0.62121200  0.40909100  1
  Cu  Cu5  1  0.62121200  0.95454500  0.40909100  1
  Cu  Cu6  1  0.95454600  0.28787900  0.40909100  1
  Cu  Cu7  1  0.95454500  0.62121200  0.40909100  1
  Cu  Cu8  1  0.95454500  0.95454500  0.40909100  1
  Cu  Cu9  1  0.16681857  0.16695527  0.50050528  1
  Cu  Cu10  1  0.16848739  0.49902963  0.50093564  1
  Cu  Cu11  1  0.16687005  0.83276147  0.50062209  1
  Cu  Cu12  1  0.49916966  0.16817273  0.50058014  1
  Cu  Cu13  1  0.49888296  0.49902776  0.50091809  1
  Cu  Cu14  1  0.50048933  0.83336470  0.50046018  1
  Cu  Cu15  1  0.83280472  0.16693553  0.50050279  1
  Cu  Cu16  1  0.83326036  0.50006964  0.50053375  1
  Cu  Cu17  1  0.83273054  0.83336009  0.50046231  1
  Cu  Cu18  1  0.04523320  0.04582876  0.59207332  1
  Cu  Cu19  1  0.04451857  0.37829602  0.59174703  1
  Cu  Cu20  1  0.04268035  0.71485579  0.59127224  1
  Cu  Cu21  1  0.37816647  0.04393301  0.59162975  1
  Cu  Cu22  1  0.37898517  0.37724463  0.59519477  1
  Cu  Cu23  1  0.37895810  0.71483091  0.59125955  1
  Cu  Cu24  1  0.71430468  0.04395085  0.59162702  1
  Cu  Cu25  1  0.71355506  0.37829396  0.59171939  1
  Cu  Cu26  1  0.71230246  0.71171406  0.59174325  1
  C  C27  1  0.36641652  0.37381993  0.68170198  1
  O  O28  1  0.28400067  0.52942577  0.71029374  1
  O  O29  1  0.45634133  0.18515999  0.70793640  1
  H  H30  1  0.44271669  0.19810177  0.75168961  1
