# generated using pymatgen
data_Co27H3N
_symmetry_space_group_name_H-M   'P 1'
_cell_length_a   7.20020400
_cell_length_b   7.22369791
_cell_length_c   21.95056060
_cell_angle_alpha   90.70782154
_cell_angle_beta   92.74453361
_cell_angle_gamma   114.11633735
_symmetry_Int_Tables_number   1
_chemical_formula_structural   Co27H3N
_chemical_formula_sum   'Co27 H3 N1'
_cell_volume   1040.21162622
_cell_formula_units_Z   1
loop_
 _symmetry_equiv_pos_site_id
 _symmetry_equiv_pos_as_xyz
  1  'x, y, z'
loop_
 _atom_site_type_symbol
 _atom_site_label
 _atom_site_symmetry_multiplicity
 _atom_site_fract_x
 _atom_site_fract_y
 _atom_site_fract_z
 _atom_site_occupancy
  Co  Co0  1  0.28787700  0.18181700  0.40909100  1
  Co  Co1  1  0.28787700  0.51515000  0.40909100  1
  Co  Co2  1  0.28787700  0.84848400  0.40909100  1
  Co  Co3  1  0.62121100  0.18181700  0.40909100  1
  Co  Co4  1  0.62121100  0.51515000  0.40909100  1
  Co  Co5  1  0.62121100  0.84848400  0.40909100  1
  Co  Co6  1  0.95454400  0.18181700  0.40909100  1
  Co  Co7  1  0.95454400  0.51515000  0.40909100  1
  Co  Co8  1  0.95454400  0.84848400  0.40909100  1
  Co  Co9  1  0.18474500  0.98397100  0.49990100  1
  Co  Co10  1  0.18239000  0.31597900  0.49965500  1
  Co  Co11  1  0.18467000  0.65110900  0.49967000  1
  Co  Co12  1  0.51687600  0.98281700  0.49990800  1
  Co  Co13  1  0.51495500  0.31474900  0.49977000  1
  Co  Co14  1  0.51661600  0.64920000  0.49977100  1
  Co  Co15  1  0.85016400  0.98191200  0.49988600  1
  Co  Co16  1  0.84723500  0.31352400  0.49968100  1
  Co  Co17  1  0.84899400  0.64747000  0.49979500  1
  Co  Co18  1  0.07905315  0.11035828  0.58866727  1
  Co  Co19  1  0.08021575  0.44546659  0.58751880  1
  Co  Co20  1  0.08033421  0.77925240  0.58780448  1
  Co  Co21  1  0.41164836  0.11217586  0.58792364  1
  Co  Co22  1  0.41771542  0.44911391  0.59856711  1
  Co  Co23  1  0.41388043  0.77998842  0.58792218  1
  Co  Co24  1  0.74748079  0.11193990  0.58914750  1
  Co  Co25  1  0.74813482  0.44800590  0.58764604  1
  Co  Co26  1  0.74971701  0.78080332  0.58882187  1
  N  N27  1  0.42678987  0.46423046  0.69187050  1
  H  H28  1  0.57216123  0.50579347  0.71099165  1
  H  H29  1  0.37480257  0.56727355  0.70839878  1
  H  H30  1  0.33781187  0.32615371  0.70914190  1
