# generated using pymatgen
data_Sn36H
_symmetry_space_group_name_H-M   'P 1'
_cell_length_a   9.43221838
_cell_length_b   11.60326658
_cell_length_c   30.60418900
_cell_angle_alpha   90.03914768
_cell_angle_beta   90.23654075
_cell_angle_gamma   88.57775690
_symmetry_Int_Tables_number   1
_chemical_formula_structural   Sn36H
_chemical_formula_sum   'Sn36 H1'
_cell_volume   3348.40054919
_cell_formula_units_Z   1
loop_
 _symmetry_equiv_pos_site_id
 _symmetry_equiv_pos_as_xyz
  1  'x, y, z'
loop_
 _atom_site_type_symbol
 _atom_site_label
 _atom_site_symmetry_multiplicity
 _atom_site_fract_x
 _atom_site_fract_y
 _atom_site_fract_z
 _atom_site_occupancy
  Sn  Sn0  1  0.22039613  0.30886517  0.54487904  1
  Sn  Sn1  1  0.22441636  0.80992008  0.54570342  1
  Sn  Sn2  1  0.55183437  0.31085347  0.55645515  1
  Sn  Sn3  1  0.56164612  0.81016744  0.54537616  1
  Sn  Sn4  1  0.88752197  0.30992657  0.55161094  1
  Sn  Sn5  1  0.89555890  0.81459294  0.55956117  1
  Sn  Sn6  1  0.03832339  0.06157759  0.54586950  1
  Sn  Sn7  1  0.03368784  0.56074270  0.54454662  1
  Sn  Sn8  1  0.36544228  0.05539147  0.56649806  1
  Sn  Sn9  1  0.36258770  0.56013142  0.55636316  1
  Sn  Sn10  1  0.70112812  0.06219482  0.54775323  1
  Sn  Sn11  1  0.70253527  0.56005562  0.55565548  1
  Sn  Sn12  1  0.22807699  0.30351943  0.44647475  1
  Sn  Sn13  1  0.24099611  0.81498292  0.44601691  1
  Sn  Sn14  1  0.55909571  0.31919105  0.44637564  1
  Sn  Sn15  1  0.57582180  0.81024960  0.44621724  1
  Sn  Sn16  1  0.89420698  0.30957077  0.45278750  1
  Sn  Sn17  1  0.90539547  0.81321259  0.45992382  1
  Sn  Sn18  1  0.02713681  0.05823205  0.44600980  1
  Sn  Sn19  1  0.01529119  0.56076523  0.44505717  1
  Sn  Sn20  1  0.35965611  0.05882547  0.46753811  1
  Sn  Sn21  1  0.34804310  0.55855615  0.45710241  1
  Sn  Sn22  1  0.68767179  0.06739335  0.44898125  1
  Sn  Sn23  1  0.68763121  0.55956207  0.45675980  1
  Sn  Sn24  1  0.21579100  0.31083800  0.34996900  1
  Sn  Sn25  1  0.21579100  0.81083800  0.34996900  1
  Sn  Sn26  1  0.54912400  0.31083800  0.34996900  1
  Sn  Sn27  1  0.54912400  0.81083800  0.34996900  1
  Sn  Sn28  1  0.88245700  0.31083800  0.34996900  1
  Sn  Sn29  1  0.88245700  0.81083800  0.34996900  1
  Sn  Sn30  1  0.03172900  0.06063000  0.35002900  1
  Sn  Sn31  1  0.03172900  0.56063000  0.35002900  1
  Sn  Sn32  1  0.36506200  0.06063000  0.35002900  1
  Sn  Sn33  1  0.36506200  0.56063000  0.35002900  1
  Sn  Sn34  1  0.69839600  0.06063000  0.35002900  1
  Sn  Sn35  1  0.69839600  0.56063000  0.35002900  1
  H  H36  1  0.54350668  0.31053767  0.61417505  1
