# generated using pymatgen
data_Cu27H
_symmetry_space_group_name_H-M   'P 1'
_cell_length_a   7.56629665
_cell_length_b   7.56629665
_cell_length_c   22.70406582
_cell_angle_alpha   86.87439516
_cell_angle_beta   86.87439516
_cell_angle_gamma   60.02635040
_symmetry_Int_Tables_number   1
_chemical_formula_structural   Cu27H
_chemical_formula_sum   'Cu27 H1'
_cell_volume   1123.70819012
_cell_formula_units_Z   1
loop_
 _symmetry_equiv_pos_site_id
 _symmetry_equiv_pos_as_xyz
  1  'x, y, z'
loop_
 _atom_site_type_symbol
 _atom_site_label
 _atom_site_symmetry_multiplicity
 _atom_site_fract_x
 _atom_site_fract_y
 _atom_site_fract_z
 _atom_site_occupancy
  Cu  Cu0  1  0.28787900  0.28787900  0.40909100  1
  Cu  Cu1  1  0.28787900  0.62121200  0.40909100  1
  Cu  Cu2  1  0.28787900  0.95454600  0.40909100  1
  Cu  Cu3  1  0.62121200  0.28787900  0.40909100  1
  Cu  Cu4  1  0.62121200  0.62121200  0.40909100  1
  Cu  Cu5  1  0.62121200  0.95454500  0.40909100  1
  Cu  Cu6  1  0.95454600  0.28787900  0.40909100  1
  Cu  Cu7  1  0.95454500  0.62121200  0.40909100  1
  Cu  Cu8  1  0.95454500  0.95454500  0.40909100  1
  Cu  Cu9  1  0.16668142  0.16668151  0.50058190  1
  Cu  Cu10  1  0.16780523  0.49981956  0.50105036  1
  Cu  Cu11  1  0.16779554  0.83227659  0.50105561  1
  Cu  Cu12  1  0.49981959  0.16780528  0.50105037  1
  Cu  Cu13  1  0.50014956  0.50014956  0.49943637  1
  Cu  Cu14  1  0.49981974  0.83227210  0.50105081  1
  Cu  Cu15  1  0.83227655  0.16779557  0.50105561  1
  Cu  Cu16  1  0.83227213  0.49981975  0.50105081  1
  Cu  Cu17  1  0.83333576  0.83333581  0.50070089  1
  Cu  Cu18  1  0.04562662  0.04562669  0.59175460  1
  Cu  Cu19  1  0.04562896  0.37875970  0.59174397  1
  Cu  Cu20  1  0.04359194  0.71309283  0.59248432  1
  Cu  Cu21  1  0.37875968  0.04562897  0.59174397  1
  Cu  Cu22  1  0.37773256  0.37773258  0.59367688  1
  Cu  Cu23  1  0.37773301  0.71392343  0.59369192  1
  Cu  Cu24  1  0.71309283  0.04359197  0.59248433  1
  Cu  Cu25  1  0.71392338  0.37773304  0.59369193  1
  Cu  Cu26  1  0.71309900  0.71309902  0.59247958  1
  H  H27  1  0.48556003  0.48556010  0.63248545  1
