# generated using pymatgen
data_Co27H
_symmetry_space_group_name_H-M   'P 1'
_cell_length_a   7.20020400
_cell_length_b   7.22369791
_cell_length_c   21.95056060
_cell_angle_alpha   90.70782154
_cell_angle_beta   92.74453361
_cell_angle_gamma   114.11633735
_symmetry_Int_Tables_number   1
_chemical_formula_structural   Co27H
_chemical_formula_sum   'Co27 H1'
_cell_volume   1040.21162622
_cell_formula_units_Z   1
loop_
 _symmetry_equiv_pos_site_id
 _symmetry_equiv_pos_as_xyz
  1  'x, y, z'
loop_
 _atom_site_type_symbol
 _atom_site_label
 _atom_site_symmetry_multiplicity
 _atom_site_fract_x
 _atom_site_fract_y
 _atom_site_fract_z
 _atom_site_occupancy
  Co  Co0  1  0.28787700  0.18181700  0.40909100  1
  Co  Co1  1  0.28787700  0.51515000  0.40909100  1
  Co  Co2  1  0.28787700  0.84848400  0.40909100  1
  Co  Co3  1  0.62121100  0.18181700  0.40909100  1
  Co  Co4  1  0.62121100  0.51515000  0.40909100  1
  Co  Co5  1  0.62121100  0.84848400  0.40909100  1
  Co  Co6  1  0.95454400  0.18181700  0.40909100  1
  Co  Co7  1  0.95454400  0.51515000  0.40909100  1
  Co  Co8  1  0.95454400  0.84848400  0.40909100  1
  Co  Co9  1  0.18487100  0.98477100  0.49999900  1
  Co  Co10  1  0.18197300  0.31662900  0.49966200  1
  Co  Co11  1  0.18465500  0.65207800  0.49974900  1
  Co  Co12  1  0.51681600  0.98291900  0.50008000  1
  Co  Co13  1  0.51459500  0.31475300  0.49995900  1
  Co  Co14  1  0.51615700  0.64914700  0.49991300  1
  Co  Co15  1  0.84999000  0.98191500  0.50000000  1
  Co  Co16  1  0.84660700  0.31335200  0.49975600  1
  Co  Co17  1  0.84813400  0.64704500  0.49981600  1
  Co  Co18  1  0.07769121  0.11842898  0.59018254  1
  Co  Co19  1  0.07667227  0.45204386  0.59144737  1
  Co  Co20  1  0.07596168  0.78587339  0.59027517  1
  Co  Co21  1  0.41076596  0.11590312  0.59076880  1
  Co  Co22  1  0.41262286  0.44787959  0.59133296  1
  Co  Co23  1  0.41027224  0.78440528  0.59187724  1
  Co  Co24  1  0.74520145  0.11742890  0.59070230  1
  Co  Co25  1  0.74503756  0.45069382  0.59047636  1
  Co  Co26  1  0.74404721  0.78390075  0.59021072  1
  H  H27  1  0.30391608  0.57039518  0.63512936  1
