# generated using pymatgen
data_Co27CO2
_symmetry_space_group_name_H-M   'P 1'
_cell_length_a   7.20020400
_cell_length_b   7.22369791
_cell_length_c   21.95056060
_cell_angle_alpha   90.70782154
_cell_angle_beta   92.74453361
_cell_angle_gamma   114.11633735
_symmetry_Int_Tables_number   1
_chemical_formula_structural   Co27CO2
_chemical_formula_sum   'Co27 C1 O2'
_cell_volume   1040.21162622
_cell_formula_units_Z   1
loop_
 _symmetry_equiv_pos_site_id
 _symmetry_equiv_pos_as_xyz
  1  'x, y, z'
loop_
 _atom_site_type_symbol
 _atom_site_label
 _atom_site_symmetry_multiplicity
 _atom_site_fract_x
 _atom_site_fract_y
 _atom_site_fract_z
 _atom_site_occupancy
  Co  Co0  1  0.28787700  0.18181700  0.40909100  1
  Co  Co1  1  0.28787700  0.51515000  0.40909100  1
  Co  Co2  1  0.28787700  0.84848400  0.40909100  1
  Co  Co3  1  0.62121100  0.18181700  0.40909100  1
  Co  Co4  1  0.62121100  0.51515000  0.40909100  1
  Co  Co5  1  0.62121100  0.84848400  0.40909100  1
  Co  Co6  1  0.95454400  0.18181700  0.40909100  1
  Co  Co7  1  0.95454400  0.51515000  0.40909100  1
  Co  Co8  1  0.95454400  0.84848400  0.40909100  1
  Co  Co9  1  0.18475000  0.98404400  0.49985500  1
  Co  Co10  1  0.18236400  0.31603000  0.49959700  1
  Co  Co11  1  0.18464700  0.65119000  0.49961800  1
  Co  Co12  1  0.51687500  0.98286800  0.49986600  1
  Co  Co13  1  0.51492000  0.31474800  0.49972400  1
  Co  Co14  1  0.51657000  0.64921600  0.49972400  1
  Co  Co15  1  0.85009800  0.98191900  0.49984500  1
  Co  Co16  1  0.84714200  0.31350100  0.49963400  1
  Co  Co17  1  0.84888300  0.64744600  0.49974600  1
  Co  Co18  1  0.07562436  0.11309263  0.58996061  1
  Co  Co19  1  0.07760064  0.44853864  0.58970015  1
  Co  Co20  1  0.07796063  0.78114580  0.58974667  1
  Co  Co21  1  0.41180381  0.11572930  0.59131001  1
  Co  Co22  1  0.41431347  0.45193676  0.59281798  1
  Co  Co23  1  0.41308970  0.78334215  0.59107970  1
  Co  Co24  1  0.74769927  0.11902764  0.59041624  1
  Co  Co25  1  0.74784674  0.45173680  0.58984793  1
  Co  Co26  1  0.74937979  0.78595883  0.58976540  1
  C  C27  1  0.42577326  0.46185222  0.68074166  1
  O  O28  1  0.47780659  0.63294123  0.70801895  1
  O  O29  1  0.38115414  0.29304117  0.70614419  1
