# generated using pymatgen
data_Sn36H
_symmetry_space_group_name_H-M   'P 1'
_cell_length_a   9.43221838
_cell_length_b   11.60326658
_cell_length_c   30.60418900
_cell_angle_alpha   90.03914768
_cell_angle_beta   90.23654075
_cell_angle_gamma   88.57775690
_symmetry_Int_Tables_number   1
_chemical_formula_structural   Sn36H
_chemical_formula_sum   'Sn36 H1'
_cell_volume   3348.40054919
_cell_formula_units_Z   1
loop_
 _symmetry_equiv_pos_site_id
 _symmetry_equiv_pos_as_xyz
  1  'x, y, z'
loop_
 _atom_site_type_symbol
 _atom_site_label
 _atom_site_symmetry_multiplicity
 _atom_site_fract_x
 _atom_site_fract_y
 _atom_site_fract_z
 _atom_site_occupancy
  Sn  Sn0  1  0.21140197  0.31149371  0.54651611  1
  Sn  Sn1  1  0.22768384  0.81233655  0.54824121  1
  Sn  Sn2  1  0.54456283  0.31130429  0.55659193  1
  Sn  Sn3  1  0.55946690  0.81099271  0.54701649  1
  Sn  Sn4  1  0.87993191  0.31012620  0.55138620  1
  Sn  Sn5  1  0.89582567  0.81101013  0.55685574  1
  Sn  Sn6  1  0.03656094  0.06078313  0.54590340  1
  Sn  Sn7  1  0.03219564  0.55970042  0.54549363  1
  Sn  Sn8  1  0.36707992  0.06086718  0.54806593  1
  Sn  Sn9  1  0.36190386  0.56038012  0.55062946  1
  Sn  Sn10  1  0.70208854  0.05940998  0.55325471  1
  Sn  Sn11  1  0.69893459  0.56004877  0.55359520  1
  Sn  Sn12  1  0.21633956  0.31009989  0.44845196  1
  Sn  Sn13  1  0.24066513  0.81068928  0.44826708  1
  Sn  Sn14  1  0.55250021  0.31048600  0.44551043  1
  Sn  Sn15  1  0.57414800  0.81174579  0.44756512  1
  Sn  Sn16  1  0.88358429  0.31008388  0.45268238  1
  Sn  Sn17  1  0.90729711  0.81136356  0.45705723  1
  Sn  Sn18  1  0.02812939  0.06140579  0.44683687  1
  Sn  Sn19  1  0.02001893  0.55745085  0.44644987  1
  Sn  Sn20  1  0.36233516  0.06035852  0.44902520  1
  Sn  Sn21  1  0.35540564  0.55713534  0.45122540  1
  Sn  Sn22  1  0.69523049  0.06124715  0.45439477  1
  Sn  Sn23  1  0.68889407  0.55840626  0.45481761  1
  Sn  Sn24  1  0.21579100  0.31083800  0.34996900  1
  Sn  Sn25  1  0.21579100  0.81083800  0.34996900  1
  Sn  Sn26  1  0.54912400  0.31083800  0.34996900  1
  Sn  Sn27  1  0.54912400  0.81083800  0.34996900  1
  Sn  Sn28  1  0.88245700  0.31083800  0.34996900  1
  Sn  Sn29  1  0.88245700  0.81083800  0.34996900  1
  Sn  Sn30  1  0.03172900  0.06063000  0.35002900  1
  Sn  Sn31  1  0.03172900  0.56063000  0.35002900  1
  Sn  Sn32  1  0.36506200  0.06063000  0.35002900  1
  Sn  Sn33  1  0.36506200  0.56063000  0.35002900  1
  Sn  Sn34  1  0.69839600  0.06063000  0.35002900  1
  Sn  Sn35  1  0.69839600  0.56063000  0.35002900  1
  H  H36  1  0.53498790  0.31195291  0.61480272  1
