# generated using pymatgen
data_Co27H3N
_symmetry_space_group_name_H-M   'P 1'
_cell_length_a   7.20020400
_cell_length_b   7.22369791
_cell_length_c   21.95056060
_cell_angle_alpha   90.70782154
_cell_angle_beta   92.74453361
_cell_angle_gamma   114.11633735
_symmetry_Int_Tables_number   1
_chemical_formula_structural   Co27H3N
_chemical_formula_sum   'Co27 H3 N1'
_cell_volume   1040.21162622
_cell_formula_units_Z   1
loop_
 _symmetry_equiv_pos_site_id
 _symmetry_equiv_pos_as_xyz
  1  'x, y, z'
loop_
 _atom_site_type_symbol
 _atom_site_label
 _atom_site_symmetry_multiplicity
 _atom_site_fract_x
 _atom_site_fract_y
 _atom_site_fract_z
 _atom_site_occupancy
  Co  Co0  1  0.28787700  0.18181700  0.40909100  1
  Co  Co1  1  0.28787700  0.51515000  0.40909100  1
  Co  Co2  1  0.28787700  0.84848400  0.40909100  1
  Co  Co3  1  0.62121100  0.18181700  0.40909100  1
  Co  Co4  1  0.62121100  0.51515000  0.40909100  1
  Co  Co5  1  0.62121100  0.84848400  0.40909100  1
  Co  Co6  1  0.95454400  0.18181700  0.40909100  1
  Co  Co7  1  0.95454400  0.51515000  0.40909100  1
  Co  Co8  1  0.95454400  0.84848400  0.40909100  1
  Co  Co9  1  0.18486200  0.98388800  0.49989800  1
  Co  Co10  1  0.18251700  0.31587800  0.49964500  1
  Co  Co11  1  0.18474300  0.65098200  0.49965500  1
  Co  Co12  1  0.51698300  0.98274100  0.49989600  1
  Co  Co13  1  0.51504900  0.31464400  0.49975700  1
  Co  Co14  1  0.51666200  0.64907600  0.49976100  1
  Co  Co15  1  0.85028800  0.98183900  0.49988500  1
  Co  Co16  1  0.84734200  0.31342900  0.49967500  1
  Co  Co17  1  0.84906700  0.64734800  0.49978800  1
  Co  Co18  1  0.07762591  0.11090214  0.58742246  1
  Co  Co19  1  0.07768795  0.44590251  0.58650217  1
  Co  Co20  1  0.08065349  0.78006126  0.58779893  1
  Co  Co21  1  0.41218073  0.11129809  0.58730779  1
  Co  Co22  1  0.41465474  0.44761833  0.59333453  1
  Co  Co23  1  0.41527905  0.78238589  0.58691762  1
  Co  Co24  1  0.74745701  0.11319099  0.58829010  1
  Co  Co25  1  0.74844621  0.44792454  0.58699246  1
  Co  Co26  1  0.74976872  0.78240733  0.58758932  1
  N  N27  1  0.42496013  0.46227913  0.68732852  1
  H  H28  1  0.57102324  0.50450207  0.70586840  1
  H  H29  1  0.37296544  0.56570791  0.70348845  1
  H  H30  1  0.33625530  0.32421596  0.70463178  1
