# generated using pymatgen
data_Cu27HO
_symmetry_space_group_name_H-M   'P 1'
_cell_length_a   7.56629665
_cell_length_b   7.56629665
_cell_length_c   22.70406582
_cell_angle_alpha   86.87439516
_cell_angle_beta   86.87439516
_cell_angle_gamma   60.02635040
_symmetry_Int_Tables_number   1
_chemical_formula_structural   Cu27HO
_chemical_formula_sum   'Cu27 H1 O1'
_cell_volume   1123.70819012
_cell_formula_units_Z   1
loop_
 _symmetry_equiv_pos_site_id
 _symmetry_equiv_pos_as_xyz
  1  'x, y, z'
loop_
 _atom_site_type_symbol
 _atom_site_label
 _atom_site_symmetry_multiplicity
 _atom_site_fract_x
 _atom_site_fract_y
 _atom_site_fract_z
 _atom_site_occupancy
  Cu  Cu0  1  0.28787900  0.28787900  0.40909100  1
  Cu  Cu1  1  0.28787900  0.62121200  0.40909100  1
  Cu  Cu2  1  0.28787900  0.95454600  0.40909100  1
  Cu  Cu3  1  0.62121200  0.28787900  0.40909100  1
  Cu  Cu4  1  0.62121200  0.62121200  0.40909100  1
  Cu  Cu5  1  0.62121200  0.95454500  0.40909100  1
  Cu  Cu6  1  0.95454600  0.28787900  0.40909100  1
  Cu  Cu7  1  0.95454500  0.62121200  0.40909100  1
  Cu  Cu8  1  0.95454500  0.95454500  0.40909100  1
  Cu  Cu9  1  0.16676375  0.16676582  0.50120695  1
  Cu  Cu10  1  0.16917387  0.49872376  0.50235100  1
  Cu  Cu11  1  0.16666165  0.83302379  0.50116399  1
  Cu  Cu12  1  0.49872077  0.16917764  0.50235208  1
  Cu  Cu13  1  0.49947894  0.49947951  0.50183200  1
  Cu  Cu14  1  0.50074923  0.83352793  0.50086922  1
  Cu  Cu15  1  0.83302090  0.16666424  0.50116518  1
  Cu  Cu16  1  0.83352390  0.50074929  0.50087139  1
  Cu  Cu17  1  0.83318800  0.83318749  0.50089847  1
  Cu  Cu18  1  0.04571728  0.04572279  0.59355803  1
  Cu  Cu19  1  0.04440377  0.37844781  0.59278525  1
  Cu  Cu20  1  0.04302685  0.71497558  0.59281516  1
  Cu  Cu21  1  0.37844711  0.04441019  0.59278508  1
  Cu  Cu22  1  0.37948145  0.37948971  0.59749491  1
  Cu  Cu23  1  0.37871108  0.71691489  0.59198642  1
  Cu  Cu24  1  0.71497049  0.04302866  0.59281563  1
  Cu  Cu25  1  0.71689898  0.37871436  0.59199269  1
  Cu  Cu26  1  0.71245018  0.71245231  0.59316424  1
  O  O27  1  0.40183817  0.40204633  0.68113455  1
  H  H28  1  0.33261697  0.33238036  0.70042554  1
