# generated using pymatgen
data_Cu24H2CSe12O
_symmetry_space_group_name_H-M   'P 1'
_cell_length_a   8.09471283
_cell_length_b   8.09451676
_cell_length_c   26.54075200
_cell_angle_alpha   85.62693029
_cell_angle_beta   85.62705062
_cell_angle_gamma   59.99922007
_symmetry_Int_Tables_number   1
_chemical_formula_structural   Cu24H2CSe12O
_chemical_formula_sum   'Cu24 H2 Se12 C1 O1'
_cell_volume   1500.17856456
_cell_formula_units_Z   1
loop_
 _symmetry_equiv_pos_site_id
 _symmetry_equiv_pos_as_xyz
  1  'x, y, z'
loop_
 _atom_site_type_symbol
 _atom_site_label
 _atom_site_symmetry_multiplicity
 _atom_site_fract_x
 _atom_site_fract_y
 _atom_site_fract_z
 _atom_site_occupancy
  Cu  Cu0  1  0.26562200  0.26563000  0.40625100  1
  Cu  Cu1  1  0.27527444  0.76003312  0.40878424  1
  Cu  Cu2  1  0.76589266  0.26753466  0.40701027  1
  Cu  Cu3  1  0.77833935  0.75555567  0.40695547  1
  Cu  Cu4  1  0.10937300  0.10937800  0.34374900  1
  Cu  Cu5  1  0.10937400  0.60937800  0.34374900  1
  Cu  Cu6  1  0.60937400  0.10937800  0.34374900  1
  Cu  Cu7  1  0.60937400  0.60937800  0.34374900  1
  Cu  Cu8  1  0.04664970  0.09360552  0.55180469  1
  Cu  Cu9  1  0.12697409  0.55445049  0.55617139  1
  Cu  Cu10  1  0.61367143  0.02599508  0.55769422  1
  Cu  Cu11  1  0.57547883  0.56221261  0.53659877  1
  Cu  Cu12  1  0.40877114  0.43105097  0.47076229  1
  Cu  Cu13  1  0.34066956  0.96799781  0.46843670  1
  Cu  Cu14  1  0.87602205  0.45591936  0.47171221  1
  Cu  Cu15  1  0.88776492  0.91528154  0.46658504  1
  Cu  Cu16  1  0.35330477  0.42242318  0.62894972  1
  Cu  Cu17  1  0.45551776  0.87938867  0.62715942  1
  Cu  Cu18  1  0.91708300  0.34818112  0.62438742  1
  Cu  Cu19  1  0.90787921  0.89709620  0.61416614  1
  Cu  Cu20  1  0.26006858  0.20377443  0.58911920  1
  Cu  Cu21  1  0.26572594  0.75165107  0.58836215  1
  Cu  Cu22  1  0.70044668  0.25014112  0.59048563  1
  Cu  Cu23  1  0.77923563  0.67552833  0.58135103  1
  Se  Se24  1  0.43749700  0.43750300  0.37500000  1
  Se  Se25  1  0.43749700  0.93750300  0.37500000  1
  Se  Se26  1  0.93749700  0.43750300  0.37500000  1
  Se  Se27  1  0.93749700  0.93750300  0.37500000  1
  Se  Se28  1  0.20164668  0.28728521  0.50065322  1
  Se  Se29  1  0.20644842  0.76338730  0.50037219  1
  Se  Se30  1  0.74049490  0.24167625  0.49990236  1
  Se  Se31  1  0.67039741  0.79490923  0.49719580  1
  Se  Se32  1  0.10566807  0.02033253  0.64597205  1
  Se  Se33  1  0.01923911  0.56790877  0.64592529  1
  Se  Se34  1  0.56201493  0.08723293  0.64831705  1
  Se  Se35  1  0.56775053  0.54740716  0.63759440  1
  C  C36  1  0.56265956  0.55223319  0.78999059  1
  O  O37  1  0.66755266  0.56492637  0.75663402  1
  H  H38  1  0.58256222  0.41114278  0.80507387  1
  H  H39  1  0.44112403  0.68097916  0.80740356  1
