# generated using pymatgen
data_Cu24HC(Se6O)2
_symmetry_space_group_name_H-M   'P 1'
_cell_length_a   8.09471283
_cell_length_b   8.09451676
_cell_length_c   26.54075200
_cell_angle_alpha   85.62693029
_cell_angle_beta   85.62705062
_cell_angle_gamma   59.99922007
_symmetry_Int_Tables_number   1
_chemical_formula_structural   Cu24HC(Se6O)2
_chemical_formula_sum   'Cu24 H1 Se12 C1 O2'
_cell_volume   1500.17856456
_cell_formula_units_Z   1
loop_
 _symmetry_equiv_pos_site_id
 _symmetry_equiv_pos_as_xyz
  1  'x, y, z'
loop_
 _atom_site_type_symbol
 _atom_site_label
 _atom_site_symmetry_multiplicity
 _atom_site_fract_x
 _atom_site_fract_y
 _atom_site_fract_z
 _atom_site_occupancy
  Cu  Cu0  1  0.26562200  0.26563000  0.40625100  1
  Cu  Cu1  1  0.26620721  0.76483706  0.40716347  1
  Cu  Cu2  1  0.76503314  0.26588147  0.40714679  1
  Cu  Cu3  1  0.76462850  0.76452004  0.40757311  1
  Cu  Cu4  1  0.10937300  0.10937800  0.34374900  1
  Cu  Cu5  1  0.10937400  0.60937800  0.34374900  1
  Cu  Cu6  1  0.60937400  0.10937800  0.34374900  1
  Cu  Cu7  1  0.60937400  0.60937800  0.34374900  1
  Cu  Cu8  1  0.07908944  0.07878918  0.54740337  1
  Cu  Cu9  1  0.07321384  0.56848686  0.54850684  1
  Cu  Cu10  1  0.56639453  0.07541471  0.54840377  1
  Cu  Cu11  1  0.57334508  0.57389295  0.54149905  1
  Cu  Cu12  1  0.42411213  0.42480682  0.46681991  1
  Cu  Cu13  1  0.42284525  0.91969385  0.46703053  1
  Cu  Cu14  1  0.91945994  0.42378220  0.46701960  1
  Cu  Cu15  1  0.92109185  0.92295312  0.46697757  1
  Cu  Cu16  1  0.40380253  0.40271743  0.61779071  1
  Cu  Cu17  1  0.39746972  0.89132358  0.62041695  1
  Cu  Cu18  1  0.88812055  0.39978796  0.61920117  1
  Cu  Cu19  1  0.89352695  0.89123218  0.62751911  1
  Cu  Cu20  1  0.23383324  0.23414837  0.59149130  1
  Cu  Cu21  1  0.22459593  0.74031799  0.58999533  1
  Cu  Cu22  1  0.74094476  0.22271764  0.59000328  1
  Cu  Cu23  1  0.73375862  0.73650989  0.59081689  1
  Se  Se24  1  0.43749700  0.43750300  0.37500000  1
  Se  Se25  1  0.43749700  0.93750300  0.37500000  1
  Se  Se26  1  0.93749700  0.43750300  0.37500000  1
  Se  Se27  1  0.93749700  0.93750300  0.37500000  1
  Se  Se28  1  0.25121843  0.25132853  0.50017939  1
  Se  Se29  1  0.24833552  0.75184598  0.50061725  1
  Se  Se30  1  0.75109090  0.24977596  0.50059271  1
  Se  Se31  1  0.75049178  0.75129154  0.50115769  1
  Se  Se32  1  0.05724234  0.06062642  0.64247665  1
  Se  Se33  1  0.06470171  0.55451909  0.64273747  1
  Se  Se34  1  0.55624611  0.06463937  0.64301290  1
  Se  Se35  1  0.55910501  0.56248986  0.65325453  1
  C  C36  1  0.56407518  0.54391936  0.73177071  1
  O  O37  1  0.47124238  0.71951739  0.74781845  1
  O  O38  1  0.64111650  0.39205422  0.75445975  1
  H  H39  1  0.46832167  0.71840129  0.78560043  1
