# generated using pymatgen
data_Mo12HSe24
_symmetry_space_group_name_H-M   'P 1'
_cell_length_a   6.57932100
_cell_length_b   13.15865201
_cell_length_c   25.69278231
_cell_angle_alpha   90.00141744
_cell_angle_beta   86.32845510
_cell_angle_gamma   89.99834975
_symmetry_Int_Tables_number   1
_chemical_formula_structural   Mo12HSe24
_chemical_formula_sum   'Mo12 H1 Se24'
_cell_volume   2219.78712514
_cell_formula_units_Z   1
loop_
 _symmetry_equiv_pos_site_id
 _symmetry_equiv_pos_as_xyz
  1  'x, y, z'
loop_
 _atom_site_type_symbol
 _atom_site_label
 _atom_site_symmetry_multiplicity
 _atom_site_fract_x
 _atom_site_fract_y
 _atom_site_fract_z
 _atom_site_occupancy
  Mo  Mo0  1  0.40730700  0.75010700  0.37035000  1
  Mo  Mo1  1  0.90730700  0.75010700  0.37035000  1
  Mo  Mo2  1  0.14824900  0.24988800  0.40742800  1
  Mo  Mo3  1  0.64824900  0.24988800  0.40742800  1
  Mo  Mo4  1  0.13054079  0.75007416  0.48109040  1
  Mo  Mo5  1  0.62835068  0.75007413  0.48108848  1
  Mo  Mo6  1  0.36882426  0.24997171  0.52520615  1
  Mo  Mo7  1  0.86888054  0.24996997  0.52496006  1
  Mo  Mo8  1  0.35134206  0.75002247  0.59469218  1
  Mo  Mo9  1  0.85142696  0.75001588  0.59445759  1
  Mo  Mo10  1  0.09478783  0.25002108  0.62068538  1
  Mo  Mo11  1  0.59431802  0.25002087  0.62067970  1
  Se  Se12  1  0.14805500  0.62304600  0.40738500  1
  Se  Se13  1  0.64805500  0.62304600  0.40738500  1
  Se  Se14  1  0.40751700  0.12282800  0.37038900  1
  Se  Se15  1  0.90751700  0.12282800  0.37038900  1
  Se  Se16  1  0.14804000  0.87717700  0.40738900  1
  Se  Se17  1  0.64804000  0.87717700  0.40738900  1
  Se  Se18  1  0.40750200  0.37696000  0.37039300  1
  Se  Se19  1  0.90750200  0.37696000  0.37039300  1
  Se  Se20  1  0.36978334  0.62298724  0.51997419  1
  Se  Se21  1  0.87002181  0.62412833  0.51898560  1
  Se  Se22  1  0.12938226  0.12614572  0.48351423  1
  Se  Se23  1  0.62912064  0.12614254  0.48351224  1
  Se  Se24  1  0.36976165  0.87710358  0.51999493  1
  Se  Se25  1  0.87000018  0.87596327  0.51901020  1
  Se  Se26  1  0.12937592  0.37375173  0.48347133  1
  Se  Se27  1  0.62911765  0.37375496  0.48346941  1
  Se  Se28  1  0.08581821  0.62630901  0.63403310  1
  Se  Se29  1  0.59719815  0.62633695  0.63404786  1
  Se  Se30  1  0.35043364  0.11331128  0.59735056  1
  Se  Se31  1  0.85054084  0.11335860  0.59695971  1
  Se  Se32  1  0.08578601  0.87366855  0.63407313  1
  Se  Se33  1  0.59718065  0.87364254  0.63408670  1
  Se  Se34  1  0.35042791  0.38671144  0.59730670  1
  Se  Se35  1  0.85053497  0.38666360  0.59691531  1
  H  H36  1  0.33398824  0.75005390  0.66267504  1
