# generated using pymatgen
data_HW27
_symmetry_space_group_name_H-M   'P 1'
_cell_length_a   8.18352602
_cell_length_b   8.18352418
_cell_length_c   22.27285200
_cell_angle_alpha   89.99630328
_cell_angle_beta   89.99630328
_cell_angle_gamma   109.47270263
_symmetry_Int_Tables_number   1
_chemical_formula_structural   HW27
_chemical_formula_sum   'H1 W27'
_cell_volume   1406.29500171
_cell_formula_units_Z   1
loop_
 _symmetry_equiv_pos_site_id
 _symmetry_equiv_pos_as_xyz
  1  'x, y, z'
loop_
 _atom_site_type_symbol
 _atom_site_label
 _atom_site_symmetry_multiplicity
 _atom_site_fract_x
 _atom_site_fract_y
 _atom_site_fract_z
 _atom_site_occupancy
  W  W0  1  0.99877982  0.33313734  0.59719307  1
  W  W1  1  0.00107524  0.66671377  0.59719237  1
  W  W2  1  0.99992662  0.99992661  0.59662020  1
  W  W3  1  0.32905300  0.32905332  0.59735233  1
  W  W4  1  0.33286068  0.66699346  0.59737048  1
  W  W5  1  0.33313733  0.99878009  0.59719296  1
  W  W6  1  0.66699311  0.33286098  0.59737035  1
  W  W7  1  0.67080549  0.67080564  0.59735155  1
  W  W8  1  0.66671380  0.00107531  0.59719200  1
  W  W9  1  0.16634438  0.16634443  0.49796861  1
  W  W10  1  0.16660185  0.49980064  0.49874642  1
  W  W11  1  0.16712985  0.83279769  0.49873504  1
  W  W12  1  0.49980046  0.16660195  0.49874620  1
  W  W13  1  0.49996659  0.49996671  0.49841259  1
  W  W14  1  0.50012744  0.83332948  0.49874629  1
  W  W15  1  0.83279778  0.16712990  0.49873493  1
  W  W16  1  0.83332956  0.50012753  0.49874638  1
  W  W17  1  0.83358620  0.83358609  0.49796810  1
  W  W18  1  0.00000000  0.33333300  0.40000000  1
  W  W19  1  0.00000000  0.66666700  0.40000000  1
  W  W20  1  0.00000000  0.00000000  0.40000000  1
  W  W21  1  0.33333300  0.33333300  0.40000000  1
  W  W22  1  0.33333300  0.66666700  0.40000000  1
  W  W23  1  0.33333300  0.00000000  0.40000000  1
  W  W24  1  0.66666700  0.33333300  0.40000000  1
  W  W25  1  0.66666700  0.66666700  0.40000000  1
  W  W26  1  0.66666700  0.00000000  0.40000000  1
  H  H27  1  0.49992397  0.49992066  0.64529341  1
