# generated using pymatgen
data_Cu27HCO2
_symmetry_space_group_name_H-M   'P 1'
_cell_length_a   7.56931204
_cell_length_b   6.17958932
_cell_length_c   26.20755800
_cell_angle_alpha   89.93253853
_cell_angle_beta   90.00615399
_cell_angle_gamma   90.00637696
_symmetry_Int_Tables_number   1
_chemical_formula_structural   Cu27HCO2
_chemical_formula_sum   'Cu27 H1 C1 O2'
_cell_volume   1225.86394768
_cell_formula_units_Z   1
loop_
 _symmetry_equiv_pos_site_id
 _symmetry_equiv_pos_as_xyz
  1  'x, y, z'
loop_
 _atom_site_type_symbol
 _atom_site_label
 _atom_site_symmetry_multiplicity
 _atom_site_fract_x
 _atom_site_fract_y
 _atom_site_fract_z
 _atom_site_occupancy
  Cu  Cu0  1  0.00000100  0.70833300  0.43055600  1
  Cu  Cu1  1  0.33333400  0.70833300  0.43055600  1
  Cu  Cu2  1  0.66666700  0.70833300  0.43055600  1
  Cu  Cu3  1  0.00000100  0.04166600  0.48611100  1
  Cu  Cu4  1  0.33333400  0.04166600  0.48611100  1
  Cu  Cu5  1  0.66666700  0.04166600  0.48611100  1
  Cu  Cu6  1  0.00002479  0.37241579  0.54202317  1
  Cu  Cu7  1  0.33432244  0.37349396  0.54343250  1
  Cu  Cu8  1  0.66572461  0.37348529  0.54343029  1
  Cu  Cu9  1  0.16666700  0.37500000  0.45833300  1
  Cu  Cu10  1  0.50000000  0.37500000  0.45833300  1
  Cu  Cu11  1  0.83333400  0.37500000  0.45833300  1
  Cu  Cu12  1  0.16653180  0.70917348  0.51372255  1
  Cu  Cu13  1  0.50001546  0.71024429  0.51374103  1
  Cu  Cu14  1  0.83350379  0.70916853  0.51372190  1
  Cu  Cu15  1  0.00004429  0.70176036  0.60001167  1
  Cu  Cu16  1  0.33282650  0.70391785  0.60003566  1
  Cu  Cu17  1  0.66726198  0.70389832  0.60002919  1
  Cu  Cu18  1  0.00001854  0.04019462  0.65164127  1
  Cu  Cu19  1  0.32745066  0.03566192  0.65306406  1
  Cu  Cu20  1  0.67261260  0.03568905  0.65303934  1
  Cu  Cu21  1  0.16831895  0.03463358  0.57067083  1
  Cu  Cu22  1  0.50002350  0.03552987  0.57125186  1
  Cu  Cu23  1  0.83175005  0.03463548  0.57066089  1
  Cu  Cu24  1  0.16428452  0.37315383  0.62606688  1
  Cu  Cu25  1  0.50005554  0.38013246  0.62814980  1
  Cu  Cu26  1  0.83578658  0.37314977  0.62607329  1
  C  C27  1  0.49990748  0.31257018  0.74889703  1
  O  O28  1  0.49971509  0.21265660  0.78971999  1
  O  O29  1  0.49972410  0.22258629  0.70362155  1
  H  H30  1  0.50027891  0.49291931  0.74805404  1
