# generated using pymatgen
data_Cu24HC(Se6O)2
_symmetry_space_group_name_H-M   'P 1'
_cell_length_a   8.09471283
_cell_length_b   8.09451676
_cell_length_c   26.54075200
_cell_angle_alpha   85.62693029
_cell_angle_beta   85.62705062
_cell_angle_gamma   59.99922007
_symmetry_Int_Tables_number   1
_chemical_formula_structural   Cu24HC(Se6O)2
_chemical_formula_sum   'Cu24 H1 Se12 C1 O2'
_cell_volume   1500.17856456
_cell_formula_units_Z   1
loop_
 _symmetry_equiv_pos_site_id
 _symmetry_equiv_pos_as_xyz
  1  'x, y, z'
loop_
 _atom_site_type_symbol
 _atom_site_label
 _atom_site_symmetry_multiplicity
 _atom_site_fract_x
 _atom_site_fract_y
 _atom_site_fract_z
 _atom_site_occupancy
  Cu  Cu0  1  0.26562200  0.26563000  0.40625100  1
  Cu  Cu1  1  0.26190066  0.76679672  0.40955603  1
  Cu  Cu2  1  0.76650810  0.26226607  0.41004125  1
  Cu  Cu3  1  0.76655355  0.76722376  0.40983746  1
  Cu  Cu4  1  0.10937300  0.10937800  0.34374900  1
  Cu  Cu5  1  0.10937400  0.60937800  0.34374900  1
  Cu  Cu6  1  0.60937400  0.10937800  0.34374900  1
  Cu  Cu7  1  0.60937400  0.60937800  0.34374900  1
  Cu  Cu8  1  0.07663278  0.08215797  0.54102889  1
  Cu  Cu9  1  0.09204824  0.56601241  0.54071895  1
  Cu  Cu10  1  0.56285373  0.07705458  0.54275415  1
  Cu  Cu11  1  0.57779822  0.57163225  0.55301017  1
  Cu  Cu12  1  0.41770781  0.42485418  0.46728670  1
  Cu  Cu13  1  0.43025470  0.92126521  0.46719088  1
  Cu  Cu14  1  0.91869723  0.41563942  0.46748211  1
  Cu  Cu15  1  0.92618650  0.91676285  0.46904108  1
  Cu  Cu16  1  0.41177276  0.40124787  0.60960748  1
  Cu  Cu17  1  0.41469240  0.87428435  0.61069880  1
  Cu  Cu18  1  0.87581542  0.40452576  0.61133790  1
  Cu  Cu19  1  0.89589610  0.87964052  0.66130234  1
  Cu  Cu20  1  0.23308677  0.23126122  0.59050409  1
  Cu  Cu21  1  0.17949940  0.76143887  0.59338622  1
  Cu  Cu22  1  0.76836108  0.16462760  0.59341864  1
  Cu  Cu23  1  0.77211104  0.76198347  0.59254343  1
  Se  Se24  1  0.43749700  0.43750300  0.37500000  1
  Se  Se25  1  0.43749700  0.93750300  0.37500000  1
  Se  Se26  1  0.93749700  0.43750300  0.37500000  1
  Se  Se27  1  0.93749700  0.93750300  0.37500000  1
  Se  Se28  1  0.24876683  0.24920942  0.49779849  1
  Se  Se29  1  0.25850376  0.74872414  0.50178815  1
  Se  Se30  1  0.74338250  0.25000943  0.50227984  1
  Se  Se31  1  0.75213928  0.74065032  0.50209888  1
  Se  Se32  1  0.06867540  0.06084362  0.63745424  1
  Se  Se33  1  0.06842475  0.54369308  0.63685342  1
  Se  Se34  1  0.55506544  0.05895455  0.63880269  1
  Se  Se35  1  0.55727478  0.55530132  0.64533468  1
  C  C36  1  0.88246229  0.89347948  0.73443286  1
  O  O37  1  0.78275865  0.07742084  0.74940923  1
  O  O38  1  0.95322259  0.75952394  0.76563683  1
  H  H39  1  0.78207385  0.07627374  0.78695812  1
