# generated using pymatgen
data_HW27
_symmetry_space_group_name_H-M   'P 1'
_cell_length_a   8.18352602
_cell_length_b   8.18352418
_cell_length_c   22.27285200
_cell_angle_alpha   89.99630328
_cell_angle_beta   89.99630328
_cell_angle_gamma   109.47270263
_symmetry_Int_Tables_number   1
_chemical_formula_structural   HW27
_chemical_formula_sum   'H1 W27'
_cell_volume   1406.29500171
_cell_formula_units_Z   1
loop_
 _symmetry_equiv_pos_site_id
 _symmetry_equiv_pos_as_xyz
  1  'x, y, z'
loop_
 _atom_site_type_symbol
 _atom_site_label
 _atom_site_symmetry_multiplicity
 _atom_site_fract_x
 _atom_site_fract_y
 _atom_site_fract_z
 _atom_site_occupancy
  W  W0  1  0.99877176  0.33311069  0.59736242  1
  W  W1  1  0.00108258  0.66674030  0.59736217  1
  W  W2  1  0.99992706  0.99992720  0.59683742  1
  W  W3  1  0.32899750  0.32899744  0.59757438  1
  W  W4  1  0.33284305  0.66701019  0.59756714  1
  W  W5  1  0.33311065  0.99877192  0.59736247  1
  W  W6  1  0.66701032  0.33284305  0.59756709  1
  W  W7  1  0.67086315  0.67086307  0.59757531  1
  W  W8  1  0.66674049  0.00108282  0.59736202  1
  W  W9  1  0.16635814  0.16635822  0.49807253  1
  W  W10  1  0.16666619  0.49978719  0.49886486  1
  W  W11  1  0.16714796  0.83278004  0.49886307  1
  W  W12  1  0.49978733  0.16666627  0.49886484  1
  W  W13  1  0.49996748  0.49996733  0.49853185  1
  W  W14  1  0.50014223  0.83326612  0.49886508  1
  W  W15  1  0.83277996  0.16714801  0.49886303  1
  W  W16  1  0.83326596  0.50014200  0.49886512  1
  W  W17  1  0.83357245  0.83357252  0.49807248  1
  W  W18  1  0.00000000  0.33333300  0.40000000  1
  W  W19  1  0.00000000  0.66666700  0.40000000  1
  W  W20  1  0.00000000  0.00000000  0.40000000  1
  W  W21  1  0.33333300  0.33333300  0.40000000  1
  W  W22  1  0.33333300  0.66666700  0.40000000  1
  W  W23  1  0.33333300  0.00000000  0.40000000  1
  W  W24  1  0.66666700  0.33333300  0.40000000  1
  W  W25  1  0.66666700  0.66666700  0.40000000  1
  W  W26  1  0.66666700  0.00000000  0.40000000  1
  H  H27  1  0.49992440  0.49992419  0.64568933  1
