# generated using pymatgen
data_Cu27HCO2
_symmetry_space_group_name_H-M   'P 1'
_cell_length_a   7.56931204
_cell_length_b   6.17958932
_cell_length_c   26.20755800
_cell_angle_alpha   89.93253853
_cell_angle_beta   90.00615399
_cell_angle_gamma   90.00637696
_symmetry_Int_Tables_number   1
_chemical_formula_structural   Cu27HCO2
_chemical_formula_sum   'Cu27 H1 C1 O2'
_cell_volume   1225.86394768
_cell_formula_units_Z   1
loop_
 _symmetry_equiv_pos_site_id
 _symmetry_equiv_pos_as_xyz
  1  'x, y, z'
loop_
 _atom_site_type_symbol
 _atom_site_label
 _atom_site_symmetry_multiplicity
 _atom_site_fract_x
 _atom_site_fract_y
 _atom_site_fract_z
 _atom_site_occupancy
  Cu  Cu0  1  0.00000100  0.70833300  0.43055600  1
  Cu  Cu1  1  0.33333400  0.70833300  0.43055600  1
  Cu  Cu2  1  0.66666700  0.70833300  0.43055600  1
  Cu  Cu3  1  0.00000100  0.04166600  0.48611100  1
  Cu  Cu4  1  0.33333400  0.04166600  0.48611100  1
  Cu  Cu5  1  0.66666700  0.04166600  0.48611100  1
  Cu  Cu6  1  0.00000765  0.37358819  0.54256795  1
  Cu  Cu7  1  0.33509995  0.37248113  0.54340220  1
  Cu  Cu8  1  0.66491472  0.37248049  0.54340098  1
  Cu  Cu9  1  0.16666700  0.37500000  0.45833300  1
  Cu  Cu10  1  0.50000000  0.37500000  0.45833300  1
  Cu  Cu11  1  0.83333400  0.37500000  0.45833300  1
  Cu  Cu12  1  0.16619796  0.70912959  0.51340516  1
  Cu  Cu13  1  0.50000642  0.70885207  0.51328056  1
  Cu  Cu14  1  0.83381322  0.70913092  0.51340565  1
  Cu  Cu15  1  0.00002165  0.70125620  0.59991472  1
  Cu  Cu16  1  0.33272628  0.70242932  0.59852316  1
  Cu  Cu17  1  0.66730646  0.70242953  0.59852471  1
  Cu  Cu18  1  0.00000735  0.04118948  0.65132230  1
  Cu  Cu19  1  0.32919678  0.03325267  0.65133020  1
  Cu  Cu20  1  0.67082431  0.03327699  0.65132593  1
  Cu  Cu21  1  0.16731090  0.03531084  0.57016246  1
  Cu  Cu22  1  0.50000295  0.03459434  0.57043281  1
  Cu  Cu23  1  0.83269753  0.03530983  0.57016184  1
  Cu  Cu24  1  0.16571698  0.37272486  0.62678048  1
  Cu  Cu25  1  0.50001277  0.37626234  0.63070868  1
  Cu  Cu26  1  0.83431592  0.37272842  0.62677964  1
  C  C27  1  0.50003878  0.38928887  0.70544140  1
  O  O28  1  0.50012020  0.54890789  0.73272960  1
  O  O29  1  0.49996197  0.18354457  0.72794718  1
  H  H30  1  0.49999395  0.19506469  0.76595682  1
