# generated using pymatgen
data_Cu24HCSe12O
_symmetry_space_group_name_H-M   'P 1'
_cell_length_a   8.09471283
_cell_length_b   8.09451676
_cell_length_c   26.54075200
_cell_angle_alpha   85.62693029
_cell_angle_beta   85.62705062
_cell_angle_gamma   59.99922007
_symmetry_Int_Tables_number   1
_chemical_formula_structural   Cu24HCSe12O
_chemical_formula_sum   'Cu24 H1 Se12 C1 O1'
_cell_volume   1500.17856456
_cell_formula_units_Z   1
loop_
 _symmetry_equiv_pos_site_id
 _symmetry_equiv_pos_as_xyz
  1  'x, y, z'
loop_
 _atom_site_type_symbol
 _atom_site_label
 _atom_site_symmetry_multiplicity
 _atom_site_fract_x
 _atom_site_fract_y
 _atom_site_fract_z
 _atom_site_occupancy
  Cu  Cu0  1  0.26562200  0.26563000  0.40625100  1
  Cu  Cu1  1  0.25350120  0.76715440  0.40959400  1
  Cu  Cu2  1  0.76516908  0.26212581  0.40916490  1
  Cu  Cu3  1  0.76633508  0.76474682  0.40827057  1
  Cu  Cu4  1  0.10937300  0.10937800  0.34374900  1
  Cu  Cu5  1  0.10937400  0.60937800  0.34374900  1
  Cu  Cu6  1  0.60937400  0.10937800  0.34374900  1
  Cu  Cu7  1  0.60937400  0.60937800  0.34374900  1
  Cu  Cu8  1  0.04360080  0.11243165  0.54291373  1
  Cu  Cu9  1  0.09584905  0.55632752  0.54886089  1
  Cu  Cu10  1  0.58667992  0.05644495  0.53982141  1
  Cu  Cu11  1  0.55806940  0.57599227  0.55589535  1
  Cu  Cu12  1  0.41215978  0.47390234  0.46864093  1
  Cu  Cu13  1  0.46307824  0.94569239  0.46696373  1
  Cu  Cu14  1  0.94673266  0.38937430  0.46763348  1
  Cu  Cu15  1  0.93488962  0.92365222  0.47097544  1
  Cu  Cu16  1  0.38505713  0.42068721  0.61261214  1
  Cu  Cu17  1  0.42766295  0.85433216  0.61854011  1
  Cu  Cu18  1  0.89545121  0.40568739  0.60890614  1
  Cu  Cu19  1  0.88913940  0.90800228  0.65735866  1
  Cu  Cu20  1  0.25357460  0.20747202  0.58633745  1
  Cu  Cu21  1  0.17912122  0.77371548  0.58954971  1
  Cu  Cu22  1  0.73533903  0.20849580  0.59432326  1
  Cu  Cu23  1  0.76869567  0.75987281  0.59334036  1
  Se  Se24  1  0.43749700  0.43750300  0.37500000  1
  Se  Se25  1  0.43749700  0.93750300  0.37500000  1
  Se  Se26  1  0.93749700  0.43750300  0.37500000  1
  Se  Se27  1  0.93749700  0.93750300  0.37500000  1
  Se  Se28  1  0.27015060  0.27585403  0.49729813  1
  Se  Se29  1  0.27496548  0.79243166  0.50112527  1
  Se  Se30  1  0.73954786  0.26299399  0.50146788  1
  Se  Se31  1  0.78212720  0.73178406  0.50147031  1
  Se  Se32  1  0.08362703  0.06427653  0.63680782  1
  Se  Se33  1  0.05831941  0.56805648  0.64246068  1
  Se  Se34  1  0.55012317  0.06714299  0.63791031  1
  Se  Se35  1  0.58031017  0.53043427  0.64785422  1
  C  C36  1  0.89306045  0.88329383  0.73164933  1
  H  H37  1  0.80109063  0.82599116  0.75021204  1
  O  O38  1  0.98930247  0.91841100  0.75630406  1
