# generated using pymatgen
data_Cu27CO2
_symmetry_space_group_name_H-M   'P 1'
_cell_length_a   7.56931204
_cell_length_b   6.17958932
_cell_length_c   26.20755800
_cell_angle_alpha   89.93253853
_cell_angle_beta   90.00615399
_cell_angle_gamma   90.00637696
_symmetry_Int_Tables_number   1
_chemical_formula_structural   Cu27CO2
_chemical_formula_sum   'Cu27 C1 O2'
_cell_volume   1225.86394768
_cell_formula_units_Z   1
loop_
 _symmetry_equiv_pos_site_id
 _symmetry_equiv_pos_as_xyz
  1  'x, y, z'
loop_
 _atom_site_type_symbol
 _atom_site_label
 _atom_site_symmetry_multiplicity
 _atom_site_fract_x
 _atom_site_fract_y
 _atom_site_fract_z
 _atom_site_occupancy
  Cu  Cu0  1  0.00000100  0.70833300  0.43055600  1
  Cu  Cu1  1  0.33333400  0.70833300  0.43055600  1
  Cu  Cu2  1  0.66666700  0.70833300  0.43055600  1
  Cu  Cu3  1  0.00000100  0.04166600  0.48611100  1
  Cu  Cu4  1  0.33333400  0.04166600  0.48611100  1
  Cu  Cu5  1  0.66666700  0.04166600  0.48611100  1
  Cu  Cu6  1  0.00001252  0.37353565  0.54259936  1
  Cu  Cu7  1  0.33403696  0.37486066  0.54274646  1
  Cu  Cu8  1  0.66598424  0.37486230  0.54274568  1
  Cu  Cu9  1  0.16666700  0.37500000  0.45833300  1
  Cu  Cu10  1  0.50000000  0.37500000  0.45833300  1
  Cu  Cu11  1  0.83333400  0.37500000  0.45833300  1
  Cu  Cu12  1  0.16570647  0.71024621  0.51374644  1
  Cu  Cu13  1  0.50001063  0.71014861  0.51377286  1
  Cu  Cu14  1  0.83431172  0.71024460  0.51374709  1
  Cu  Cu15  1  0.00002896  0.70406765  0.59985305  1
  Cu  Cu16  1  0.33132326  0.70941868  0.59891343  1
  Cu  Cu17  1  0.66872699  0.70942512  0.59891527  1
  Cu  Cu18  1  0.00000090  0.04324127  0.65131730  1
  Cu  Cu19  1  0.32986564  0.04023786  0.65322319  1
  Cu  Cu20  1  0.67015016  0.04026506  0.65322192  1
  Cu  Cu21  1  0.16878997  0.03794321  0.57093158  1
  Cu  Cu22  1  0.50001130  0.03871616  0.57055151  1
  Cu  Cu23  1  0.83122860  0.03794613  0.57092825  1
  Cu  Cu24  1  0.16567568  0.37698494  0.62655957  1
  Cu  Cu25  1  0.50002532  0.38876719  0.62700935  1
  Cu  Cu26  1  0.83436874  0.37698613  0.62655940  1
  C  C27  1  0.50005511  0.35766111  0.70173718  1
  O  O28  1  0.50017630  0.50407998  0.73362237  1
  O  O29  1  0.49992371  0.14769410  0.71422054  1
