# generated using pymatgen
data_Ni27H
_symmetry_space_group_name_H-M   'P 1'
_cell_length_a   7.33151102
_cell_length_b   7.33233304
_cell_length_c   24.19342100
_cell_angle_alpha   89.99505366
_cell_angle_beta   89.99585023
_cell_angle_gamma   89.99674115
_symmetry_Int_Tables_number   1
_chemical_formula_structural   Ni27H
_chemical_formula_sum   'Ni27 H1'
_cell_volume   1300.56766926
_cell_formula_units_Z   1
loop_
 _symmetry_equiv_pos_site_id
 _symmetry_equiv_pos_as_xyz
  1  'x, y, z'
loop_
 _atom_site_type_symbol
 _atom_site_label
 _atom_site_symmetry_multiplicity
 _atom_site_fract_x
 _atom_site_fract_y
 _atom_site_fract_z
 _atom_site_occupancy
  Ni  Ni0  1  0.00094504  0.33370336  0.53612323  1
  Ni  Ni1  1  0.99918706  0.66622685  0.53594621  1
  Ni  Ni2  1  0.99923764  0.99922657  0.53602453  1
  Ni  Ni3  1  0.33405397  0.33405063  0.53719294  1
  Ni  Ni4  1  0.33360662  0.66610710  0.53600624  1
  Ni  Ni5  1  0.33371014  0.00093941  0.53612275  1
  Ni  Ni6  1  0.66610449  0.33359878  0.53600630  1
  Ni  Ni7  1  0.66625453  0.66625473  0.53583964  1
  Ni  Ni8  1  0.66622501  0.99917223  0.53594563  1
  Ni  Ni9  1  0.00000100  0.33333200  0.39285700  1
  Ni  Ni10  1  0.00000100  0.66666500  0.39285700  1
  Ni  Ni11  1  0.00000100  0.99999800  0.39285700  1
  Ni  Ni12  1  0.33333400  0.33333200  0.39285700  1
  Ni  Ni13  1  0.33333400  0.66666500  0.39285700  1
  Ni  Ni14  1  0.33333400  0.99999800  0.39285700  1
  Ni  Ni15  1  0.66666800  0.33333200  0.39285700  1
  Ni  Ni16  1  0.66666800  0.66666500  0.39285700  1
  Ni  Ni17  1  0.66666800  0.99999800  0.39285700  1
  Ni  Ni18  1  0.16624600  0.16624000  0.46437200  1
  Ni  Ni19  1  0.16616600  0.49999600  0.46433000  1
  Ni  Ni20  1  0.16624700  0.83375900  0.46437900  1
  Ni  Ni21  1  0.49999600  0.16616200  0.46432500  1
  Ni  Ni22  1  0.49999600  0.49999500  0.46429300  1
  Ni  Ni23  1  0.49999600  0.83383700  0.46433400  1
  Ni  Ni24  1  0.83375600  0.16624100  0.46437900  1
  Ni  Ni25  1  0.83383700  0.49999500  0.46433800  1
  Ni  Ni26  1  0.83375600  0.83375900  0.46438700  1
  H  H27  1  0.33341434  0.33339263  0.59806122  1
