# generated using pymatgen
data_Cu24H4CSe12O
_symmetry_space_group_name_H-M   'P 1'
_cell_length_a   8.09471283
_cell_length_b   8.09451676
_cell_length_c   26.54075200
_cell_angle_alpha   85.62693029
_cell_angle_beta   85.62705062
_cell_angle_gamma   59.99922007
_symmetry_Int_Tables_number   1
_chemical_formula_structural   Cu24H4CSe12O
_chemical_formula_sum   'Cu24 H4 Se12 C1 O1'
_cell_volume   1500.17856456
_cell_formula_units_Z   1
loop_
 _symmetry_equiv_pos_site_id
 _symmetry_equiv_pos_as_xyz
  1  'x, y, z'
loop_
 _atom_site_type_symbol
 _atom_site_label
 _atom_site_symmetry_multiplicity
 _atom_site_fract_x
 _atom_site_fract_y
 _atom_site_fract_z
 _atom_site_occupancy
  Cu  Cu0  1  0.26562200  0.26563000  0.40625100  1
  Cu  Cu1  1  0.26796815  0.76324573  0.40769127  1
  Cu  Cu2  1  0.76160947  0.26888138  0.40860125  1
  Cu  Cu3  1  0.76194555  0.76406619  0.40925090  1
  Cu  Cu4  1  0.10937300  0.10937800  0.34374900  1
  Cu  Cu5  1  0.10937400  0.60937800  0.34374900  1
  Cu  Cu6  1  0.60937400  0.10937800  0.34374900  1
  Cu  Cu7  1  0.60937400  0.60937800  0.34374900  1
  Cu  Cu8  1  0.06650982  0.06138921  0.55284066  1
  Cu  Cu9  1  0.07006201  0.57871655  0.55167626  1
  Cu  Cu10  1  0.55684307  0.08070853  0.55403005  1
  Cu  Cu11  1  0.57651762  0.57511493  0.53511912  1
  Cu  Cu12  1  0.43139562  0.42734450  0.46999641  1
  Cu  Cu13  1  0.42632944  0.91479026  0.46970264  1
  Cu  Cu14  1  0.91975745  0.42268912  0.46943770  1
  Cu  Cu15  1  0.91679105  0.92084558  0.46454322  1
  Cu  Cu16  1  0.38834866  0.37734006  0.62384671  1
  Cu  Cu17  1  0.39295417  0.90865539  0.62388732  1
  Cu  Cu18  1  0.89233096  0.39831835  0.62864210  1
  Cu  Cu19  1  0.90766616  0.89630715  0.61459432  1
  Cu  Cu20  1  0.21158029  0.23859647  0.58902394  1
  Cu  Cu21  1  0.25640535  0.71745503  0.58987140  1
  Cu  Cu22  1  0.72216421  0.24974846  0.59062051  1
  Cu  Cu23  1  0.72746853  0.73136128  0.59156869  1
  Se  Se24  1  0.43749700  0.43750300  0.37500000  1
  Se  Se25  1  0.43749700  0.93750300  0.37500000  1
  Se  Se26  1  0.93749700  0.43750300  0.37500000  1
  Se  Se27  1  0.93749700  0.93750300  0.37500000  1
  Se  Se28  1  0.26322063  0.25006483  0.50013621  1
  Se  Se29  1  0.23928631  0.75906777  0.50026906  1
  Se  Se30  1  0.76474557  0.23724549  0.50107196  1
  Se  Se31  1  0.75810065  0.74899880  0.50179877  1
  Se  Se32  1  0.06134550  0.06211303  0.64654120  1
  Se  Se33  1  0.05837257  0.56215626  0.64598637  1
  Se  Se34  1  0.57851428  0.04674519  0.64713970  1
  Se  Se35  1  0.55365004  0.56032083  0.63551268  1
  C  C36  1  0.60721571  0.43386891  0.78127548  1
  O  O37  1  0.49589818  0.59516278  0.74826800  1
  H  H38  1  0.61693251  0.30739715  0.76526826  1
  H  H39  1  0.53833054  0.45146186  0.81959113  1
  H  H40  1  0.75357046  0.40835173  0.78417880  1
  H  H41  1  0.52349951  0.69673969  0.75445496  1
