# generated using pymatgen
data_Cu27HCO
_symmetry_space_group_name_H-M   'P 1'
_cell_length_a   7.56931204
_cell_length_b   6.17958932
_cell_length_c   26.20755800
_cell_angle_alpha   89.93253853
_cell_angle_beta   90.00615399
_cell_angle_gamma   90.00637696
_symmetry_Int_Tables_number   1
_chemical_formula_structural   Cu27HCO
_chemical_formula_sum   'Cu27 H1 C1 O1'
_cell_volume   1225.86394768
_cell_formula_units_Z   1
loop_
 _symmetry_equiv_pos_site_id
 _symmetry_equiv_pos_as_xyz
  1  'x, y, z'
loop_
 _atom_site_type_symbol
 _atom_site_label
 _atom_site_symmetry_multiplicity
 _atom_site_fract_x
 _atom_site_fract_y
 _atom_site_fract_z
 _atom_site_occupancy
  Cu  Cu0  1  0.00000100  0.70833300  0.43055600  1
  Cu  Cu1  1  0.33333400  0.70833300  0.43055600  1
  Cu  Cu2  1  0.66666700  0.70833300  0.43055600  1
  Cu  Cu3  1  0.00000100  0.04166600  0.48611100  1
  Cu  Cu4  1  0.33333400  0.04166600  0.48611100  1
  Cu  Cu5  1  0.66666700  0.04166600  0.48611100  1
  Cu  Cu6  1  0.99788233  0.37171131  0.54247400  1
  Cu  Cu7  1  0.33387157  0.37031419  0.54327165  1
  Cu  Cu8  1  0.66472717  0.37234998  0.54338013  1
  Cu  Cu9  1  0.16666700  0.37500000  0.45833300  1
  Cu  Cu10  1  0.50000000  0.37500000  0.45833300  1
  Cu  Cu11  1  0.83333400  0.37500000  0.45833300  1
  Cu  Cu12  1  0.16625174  0.70780122  0.51340204  1
  Cu  Cu13  1  0.49956926  0.70716528  0.51342784  1
  Cu  Cu14  1  0.83281274  0.70899296  0.51356597  1
  Cu  Cu15  1  0.99874326  0.69869248  0.59908848  1
  Cu  Cu16  1  0.33224281  0.69557622  0.59932126  1
  Cu  Cu17  1  0.66501689  0.70296038  0.59909623  1
  Cu  Cu18  1  0.99709413  0.03387003  0.65085675  1
  Cu  Cu19  1  0.32723332  0.02923270  0.65020478  1
  Cu  Cu20  1  0.66167233  0.04004327  0.65118176  1
  Cu  Cu21  1  0.16516976  0.03224486  0.56961151  1
  Cu  Cu22  1  0.49750773  0.03204338  0.56966423  1
  Cu  Cu23  1  0.83045065  0.03461579  0.57026992  1
  Cu  Cu24  1  0.16381917  0.36729294  0.62638810  1
  Cu  Cu25  1  0.49726062  0.37220685  0.63102197  1
  Cu  Cu26  1  0.83516883  0.37295197  0.62705893  1
  C  C27  1  0.56988891  0.38546955  0.70328493  1
  H  H28  1  0.45933596  0.34874436  0.73032131  1
  O  O29  1  0.70632161  0.46458689  0.72035282  1
