# generated using pymatgen
data_Cu24HCSe12O
_symmetry_space_group_name_H-M   'P 1'
_cell_length_a   8.09471283
_cell_length_b   8.09451676
_cell_length_c   26.54075200
_cell_angle_alpha   85.62693029
_cell_angle_beta   85.62705062
_cell_angle_gamma   59.99922007
_symmetry_Int_Tables_number   1
_chemical_formula_structural   Cu24HCSe12O
_chemical_formula_sum   'Cu24 H1 Se12 C1 O1'
_cell_volume   1500.17856456
_cell_formula_units_Z   1
loop_
 _symmetry_equiv_pos_site_id
 _symmetry_equiv_pos_as_xyz
  1  'x, y, z'
loop_
 _atom_site_type_symbol
 _atom_site_label
 _atom_site_symmetry_multiplicity
 _atom_site_fract_x
 _atom_site_fract_y
 _atom_site_fract_z
 _atom_site_occupancy
  Cu  Cu0  1  0.26562200  0.26563000  0.40625100  1
  Cu  Cu1  1  0.26384868  0.76467667  0.40647939  1
  Cu  Cu2  1  0.76723661  0.26343732  0.40832328  1
  Cu  Cu3  1  0.76438053  0.76361881  0.40586013  1
  Cu  Cu4  1  0.10937300  0.10937800  0.34374900  1
  Cu  Cu5  1  0.10937400  0.60937800  0.34374900  1
  Cu  Cu6  1  0.60937400  0.10937800  0.34374900  1
  Cu  Cu7  1  0.60937400  0.60937800  0.34374900  1
  Cu  Cu8  1  0.04546936  0.04546090  0.54825778  1
  Cu  Cu9  1  0.11868963  0.54849477  0.54624341  1
  Cu  Cu10  1  0.52933121  0.10103120  0.54719477  1
  Cu  Cu11  1  0.61804981  0.58652162  0.54994041  1
  Cu  Cu12  1  0.39910039  0.41114679  0.47049743  1
  Cu  Cu13  1  0.44389750  0.91822899  0.46855583  1
  Cu  Cu14  1  0.88001647  0.44945526  0.46847603  1
  Cu  Cu15  1  0.94753307  0.94251528  0.46861937  1
  Cu  Cu16  1  0.37157864  0.37124678  0.61732881  1
  Cu  Cu17  1  0.42268127  0.88255241  0.61841198  1
  Cu  Cu18  1  0.86589448  0.41719558  0.62278213  1
  Cu  Cu19  1  0.93033235  0.90628942  0.62403793  1
  Cu  Cu20  1  0.19674738  0.21896210  0.58643804  1
  Cu  Cu21  1  0.26716167  0.71281979  0.58912681  1
  Cu  Cu22  1  0.71389979  0.24453907  0.59169016  1
  Cu  Cu23  1  0.76569814  0.75584441  0.58830671  1
  Se  Se24  1  0.43749700  0.43750300  0.37500000  1
  Se  Se25  1  0.43749700  0.93750300  0.37500000  1
  Se  Se26  1  0.93749700  0.43750300  0.37500000  1
  Se  Se27  1  0.93749700  0.93750300  0.37500000  1
  Se  Se28  1  0.22095230  0.24742535  0.49783458  1
  Se  Se29  1  0.26910157  0.74421949  0.49955292  1
  Se  Se30  1  0.73067285  0.26172696  0.50135553  1
  Se  Se31  1  0.76520995  0.76801295  0.49907062  1
  Se  Se32  1  0.07614195  0.07340804  0.64707747  1
  Se  Se33  1  0.04617819  0.56874357  0.64096569  1
  Se  Se34  1  0.58393921  0.04616130  0.64131703  1
  Se  Se35  1  0.53456436  0.54711687  0.64421620  1
  C  C36  1  0.94587528  0.90087875  0.75768130  1
  H  H37  1  0.96598376  0.90512459  0.79887576  1
  O  O38  1  0.84998405  0.84539707  0.74137157  1
