# generated using pymatgen
data_Mo12HSe24
_symmetry_space_group_name_H-M   'P 1'
_cell_length_a   6.57932100
_cell_length_b   13.15865201
_cell_length_c   25.69278231
_cell_angle_alpha   90.00141744
_cell_angle_beta   86.32845510
_cell_angle_gamma   89.99834975
_symmetry_Int_Tables_number   1
_chemical_formula_structural   Mo12HSe24
_chemical_formula_sum   'Mo12 H1 Se24'
_cell_volume   2219.78712514
_cell_formula_units_Z   1
loop_
 _symmetry_equiv_pos_site_id
 _symmetry_equiv_pos_as_xyz
  1  'x, y, z'
loop_
 _atom_site_type_symbol
 _atom_site_label
 _atom_site_symmetry_multiplicity
 _atom_site_fract_x
 _atom_site_fract_y
 _atom_site_fract_z
 _atom_site_occupancy
  Mo  Mo0  1  0.40730700  0.75010700  0.37035000  1
  Mo  Mo1  1  0.90730700  0.75010700  0.37035000  1
  Mo  Mo2  1  0.14824900  0.24988800  0.40742800  1
  Mo  Mo3  1  0.64824900  0.24988800  0.40742800  1
  Mo  Mo4  1  0.13071722  0.75007470  0.48148676  1
  Mo  Mo5  1  0.62801345  0.75007513  0.48148315  1
  Mo  Mo6  1  0.36903445  0.24996936  0.52515468  1
  Mo  Mo7  1  0.86902430  0.24996881  0.52516525  1
  Mo  Mo8  1  0.35104140  0.75004412  0.59594791  1
  Mo  Mo9  1  0.85116238  0.75004526  0.59548284  1
  Mo  Mo10  1  0.09608958  0.25002106  0.61819869  1
  Mo  Mo11  1  0.59491362  0.25002186  0.61819679  1
  Se  Se12  1  0.14805500  0.62304600  0.40738500  1
  Se  Se13  1  0.64805500  0.62304600  0.40738500  1
  Se  Se14  1  0.40751700  0.12282800  0.37038900  1
  Se  Se15  1  0.90751700  0.12282800  0.37038900  1
  Se  Se16  1  0.14804000  0.87717700  0.40738900  1
  Se  Se17  1  0.64804000  0.87717700  0.40738900  1
  Se  Se18  1  0.40750200  0.37696000  0.37039300  1
  Se  Se19  1  0.90750200  0.37696000  0.37039300  1
  Se  Se20  1  0.36961974  0.62343416  0.52071637  1
  Se  Se21  1  0.86985288  0.62482271  0.51973409  1
  Se  Se22  1  0.12927967  0.12592876  0.48365810  1
  Se  Se23  1  0.62945895  0.12592643  0.48365700  1
  Se  Se24  1  0.36959909  0.87668399  0.52073276  1
  Se  Se25  1  0.86983349  0.87530195  0.51975038  1
  Se  Se26  1  0.12927300  0.37395678  0.48361934  1
  Se  Se27  1  0.62945386  0.37395906  0.48361831  1
  Se  Se28  1  0.08540524  0.62483727  0.63449674  1
  Se  Se29  1  0.59742286  0.62484791  0.63451104  1
  Se  Se30  1  0.35075853  0.11145925  0.59737138  1
  Se  Se31  1  0.85070129  0.11151861  0.59759494  1
  Se  Se32  1  0.08538607  0.87523059  0.63451427  1
  Se  Se33  1  0.59740264  0.87522283  0.63452714  1
  Se  Se34  1  0.35075101  0.38855820  0.59732734  1
  Se  Se35  1  0.85069527  0.38849834  0.59755127  1
  H  H36  1  0.33410639  0.75005662  0.66315423  1
