# generated using pymatgen
data_Cu27CO2
_symmetry_space_group_name_H-M   'P 1'
_cell_length_a   7.56931204
_cell_length_b   6.17958932
_cell_length_c   26.20755800
_cell_angle_alpha   89.93253853
_cell_angle_beta   90.00615399
_cell_angle_gamma   90.00637696
_symmetry_Int_Tables_number   1
_chemical_formula_structural   Cu27CO2
_chemical_formula_sum   'Cu27 C1 O2'
_cell_volume   1225.86394768
_cell_formula_units_Z   1
loop_
 _symmetry_equiv_pos_site_id
 _symmetry_equiv_pos_as_xyz
  1  'x, y, z'
loop_
 _atom_site_type_symbol
 _atom_site_label
 _atom_site_symmetry_multiplicity
 _atom_site_fract_x
 _atom_site_fract_y
 _atom_site_fract_z
 _atom_site_occupancy
  Cu  Cu0  1  0.00000100  0.70833300  0.43055600  1
  Cu  Cu1  1  0.33333400  0.70833300  0.43055600  1
  Cu  Cu2  1  0.66666700  0.70833300  0.43055600  1
  Cu  Cu3  1  0.00000100  0.04166600  0.48611100  1
  Cu  Cu4  1  0.33333400  0.04166600  0.48611100  1
  Cu  Cu5  1  0.66666700  0.04166600  0.48611100  1
  Cu  Cu6  1  0.00001460  0.37030313  0.54265958  1
  Cu  Cu7  1  0.33380230  0.37233311  0.54249223  1
  Cu  Cu8  1  0.66622578  0.37233460  0.54249120  1
  Cu  Cu9  1  0.16666700  0.37500000  0.45833300  1
  Cu  Cu10  1  0.50000000  0.37500000  0.45833300  1
  Cu  Cu11  1  0.83333400  0.37500000  0.45833300  1
  Cu  Cu12  1  0.16583522  0.70903983  0.51341437  1
  Cu  Cu13  1  0.50001168  0.70918820  0.51346038  1
  Cu  Cu14  1  0.83418756  0.70903857  0.51341456  1
  Cu  Cu15  1  0.00003227  0.70004705  0.59927026  1
  Cu  Cu16  1  0.33185489  0.70503986  0.59900068  1
  Cu  Cu17  1  0.66820773  0.70504293  0.59900103  1
  Cu  Cu18  1  0.00000590  0.03772532  0.65135654  1
  Cu  Cu19  1  0.33034211  0.03552771  0.65367214  1
  Cu  Cu20  1  0.66968359  0.03554609  0.65367114  1
  Cu  Cu21  1  0.16925446  0.03422275  0.57124504  1
  Cu  Cu22  1  0.50001570  0.03516655  0.57078003  1
  Cu  Cu23  1  0.83077303  0.03422476  0.57124213  1
  Cu  Cu24  1  0.16578872  0.37308608  0.62646129  1
  Cu  Cu25  1  0.50003228  0.38360059  0.62654178  1
  Cu  Cu26  1  0.83426565  0.37308328  0.62646220  1
  C  C27  1  0.50005862  0.35752465  0.70263085  1
  O  O28  1  0.50019125  0.51118503  0.73129633  1
  O  O29  1  0.49992753  0.14934678  0.71344930  1
