# generated using pymatgen
data_Cu24HSe12
_symmetry_space_group_name_H-M   'P 1'
_cell_length_a   8.09471283
_cell_length_b   8.09451676
_cell_length_c   26.54075200
_cell_angle_alpha   85.62693029
_cell_angle_beta   85.62705062
_cell_angle_gamma   59.99922007
_symmetry_Int_Tables_number   1
_chemical_formula_structural   Cu24HSe12
_chemical_formula_sum   'Cu24 H1 Se12'
_cell_volume   1500.17856456
_cell_formula_units_Z   1
loop_
 _symmetry_equiv_pos_site_id
 _symmetry_equiv_pos_as_xyz
  1  'x, y, z'
loop_
 _atom_site_type_symbol
 _atom_site_label
 _atom_site_symmetry_multiplicity
 _atom_site_fract_x
 _atom_site_fract_y
 _atom_site_fract_z
 _atom_site_occupancy
  Cu  Cu0  1  0.26562200  0.26563000  0.40625100  1
  Cu  Cu1  1  0.27053492  0.76139858  0.41351841  1
  Cu  Cu2  1  0.76140357  0.27058434  0.41352008  1
  Cu  Cu3  1  0.76149741  0.76144976  0.41347315  1
  Cu  Cu4  1  0.10937300  0.10937800  0.34374900  1
  Cu  Cu5  1  0.10937400  0.60937800  0.34374900  1
  Cu  Cu6  1  0.60937400  0.10937800  0.34374900  1
  Cu  Cu7  1  0.60937400  0.60937800  0.34374900  1
  Cu  Cu8  1  0.08854261  0.08895075  0.54602723  1
  Cu  Cu9  1  0.08940682  0.54978551  0.54581423  1
  Cu  Cu10  1  0.54978504  0.08928357  0.54584575  1
  Cu  Cu11  1  0.57707719  0.57712185  0.54023518  1
  Cu  Cu12  1  0.43189584  0.43211645  0.47349579  1
  Cu  Cu13  1  0.43266157  0.89901317  0.47340719  1
  Cu  Cu14  1  0.89913914  0.43246302  0.47346279  1
  Cu  Cu15  1  0.92316072  0.92316198  0.46346192  1
  Cu  Cu16  1  0.40915215  0.40920533  0.60493810  1
  Cu  Cu17  1  0.40903063  0.87977089  0.60499215  1
  Cu  Cu18  1  0.87975189  0.40906931  0.60498017  1
  Cu  Cu19  1  0.88767346  0.88768485  0.67347738  1
  Cu  Cu20  1  0.23436621  0.23439598  0.59488858  1
  Cu  Cu21  1  0.13028333  0.78563386  0.59724365  1
  Cu  Cu22  1  0.78552222  0.13038467  0.59726291  1
  Cu  Cu23  1  0.78567973  0.78564142  0.59715991  1
  Se  Se24  1  0.43749700  0.43750300  0.37500000  1
  Se  Se25  1  0.43749700  0.93750300  0.37500000  1
  Se  Se26  1  0.93749700  0.43750300  0.37500000  1
  Se  Se27  1  0.93749700  0.93750300  0.37500000  1
  Se  Se28  1  0.25053727  0.25041388  0.49644099  1
  Se  Se29  1  0.23394237  0.75714348  0.50496528  1
  Se  Se30  1  0.75694486  0.23397189  0.50496026  1
  Se  Se31  1  0.75735576  0.75726376  0.50492737  1
  Se  Se32  1  0.06738363  0.06739033  0.64276755  1
  Se  Se33  1  0.06743221  0.54399986  0.64272851  1
  Se  Se34  1  0.54398962  0.06741281  0.64273873  1
  Se  Se35  1  0.56100706  0.56100027  0.63489522  1
  H  H36  1  0.87821651  0.87819736  0.73200329  1
