# generated using pymatgen
data_Cu24CSe12O
_symmetry_space_group_name_H-M   'P 1'
_cell_length_a   8.09471283
_cell_length_b   8.09451676
_cell_length_c   26.54075200
_cell_angle_alpha   85.62693029
_cell_angle_beta   85.62705062
_cell_angle_gamma   59.99922007
_symmetry_Int_Tables_number   1
_chemical_formula_structural   Cu24CSe12O
_chemical_formula_sum   'Cu24 Se12 C1 O1'
_cell_volume   1500.17856456
_cell_formula_units_Z   1
loop_
 _symmetry_equiv_pos_site_id
 _symmetry_equiv_pos_as_xyz
  1  'x, y, z'
loop_
 _atom_site_type_symbol
 _atom_site_label
 _atom_site_symmetry_multiplicity
 _atom_site_fract_x
 _atom_site_fract_y
 _atom_site_fract_z
 _atom_site_occupancy
  Cu  Cu0  1  0.26562200  0.26563000  0.40625100  1
  Cu  Cu1  1  0.26687550  0.76410466  0.40862470  1
  Cu  Cu2  1  0.76327172  0.26821194  0.40819655  1
  Cu  Cu3  1  0.76438483  0.76552357  0.40833930  1
  Cu  Cu4  1  0.10937300  0.10937800  0.34374900  1
  Cu  Cu5  1  0.10937400  0.60937800  0.34374900  1
  Cu  Cu6  1  0.60937400  0.10937800  0.34374900  1
  Cu  Cu7  1  0.60937400  0.60937800  0.34374900  1
  Cu  Cu8  1  0.05548773  0.05712236  0.55078626  1
  Cu  Cu9  1  0.08933084  0.54918613  0.54955153  1
  Cu  Cu10  1  0.55751856  0.09091092  0.54941856  1
  Cu  Cu11  1  0.58026860  0.59668301  0.54566208  1
  Cu  Cu12  1  0.42290066  0.42145929  0.46888466  1
  Cu  Cu13  1  0.42729080  0.91086201  0.46885538  1
  Cu  Cu14  1  0.91565212  0.42403101  0.46871351  1
  Cu  Cu15  1  0.92367304  0.92258819  0.46623042  1
  Cu  Cu16  1  0.37569420  0.37552512  0.62111524  1
  Cu  Cu17  1  0.41159829  0.87742233  0.61999190  1
  Cu  Cu18  1  0.88679863  0.41106858  0.62038126  1
  Cu  Cu19  1  0.90613683  0.91977656  0.62239053  1
  Cu  Cu20  1  0.22073695  0.21217883  0.58816030  1
  Cu  Cu21  1  0.24414903  0.71541651  0.59133723  1
  Cu  Cu22  1  0.71360916  0.25705352  0.59005641  1
  Cu  Cu23  1  0.75016208  0.75039289  0.59051327  1
  Se  Se24  1  0.43749700  0.43750300  0.37500000  1
  Se  Se25  1  0.43749700  0.93750300  0.37500000  1
  Se  Se26  1  0.93749700  0.43750300  0.37500000  1
  Se  Se27  1  0.93749700  0.93750300  0.37500000  1
  Se  Se28  1  0.25292364  0.24822731  0.49928692  1
  Se  Se29  1  0.24658255  0.75036201  0.50145902  1
  Se  Se30  1  0.75414888  0.24319314  0.50091467  1
  Se  Se31  1  0.75506444  0.74949007  0.50097676  1
  Se  Se32  1  0.07328133  0.07104380  0.64595933  1
  Se  Se33  1  0.04590501  0.57838117  0.64441728  1
  Se  Se34  1  0.57019594  0.04560981  0.64429829  1
  Se  Se35  1  0.54896523  0.54267174  0.64106711  1
  O  O36  1  0.53148432  0.50830331  0.77495999  1
  C  C37  1  0.58951920  0.60341191  0.75714294  1
