# generated using pymatgen
data_Cu27H
_symmetry_space_group_name_H-M   'P 1'
_cell_length_a   7.56931204
_cell_length_b   6.17958932
_cell_length_c   26.20755800
_cell_angle_alpha   89.93253853
_cell_angle_beta   90.00615399
_cell_angle_gamma   90.00637696
_symmetry_Int_Tables_number   1
_chemical_formula_structural   Cu27H
_chemical_formula_sum   'Cu27 H1'
_cell_volume   1225.86394768
_cell_formula_units_Z   1
loop_
 _symmetry_equiv_pos_site_id
 _symmetry_equiv_pos_as_xyz
  1  'x, y, z'
loop_
 _atom_site_type_symbol
 _atom_site_label
 _atom_site_symmetry_multiplicity
 _atom_site_fract_x
 _atom_site_fract_y
 _atom_site_fract_z
 _atom_site_occupancy
  Cu  Cu0  1  0.00000100  0.70833300  0.43055600  1
  Cu  Cu1  1  0.33333400  0.70833300  0.43055600  1
  Cu  Cu2  1  0.66666700  0.70833300  0.43055600  1
  Cu  Cu3  1  0.00000100  0.04166600  0.48611100  1
  Cu  Cu4  1  0.33333400  0.04166600  0.48611100  1
  Cu  Cu5  1  0.66666700  0.04166600  0.48611100  1
  Cu  Cu6  1  0.00001313  0.37229798  0.54254666  1
  Cu  Cu7  1  0.33409556  0.37162461  0.54353278  1
  Cu  Cu8  1  0.66593277  0.37162411  0.54353219  1
  Cu  Cu9  1  0.16666700  0.37500000  0.45833300  1
  Cu  Cu10  1  0.50000000  0.37500000  0.45833300  1
  Cu  Cu11  1  0.83333400  0.37500000  0.45833300  1
  Cu  Cu12  1  0.16666065  0.70834885  0.51422365  1
  Cu  Cu13  1  0.50001302  0.70668868  0.51393288  1
  Cu  Cu14  1  0.83336714  0.70835008  0.51422407  1
  Cu  Cu15  1  0.00003220  0.70182321  0.60060425  1
  Cu  Cu16  1  0.33355217  0.70077401  0.60059585  1
  Cu  Cu17  1  0.66651007  0.70077492  0.60059533  1
  Cu  Cu18  1  0.00001477  0.04126556  0.65081000  1
  Cu  Cu19  1  0.33200324  0.04118545  0.65131049  1
  Cu  Cu20  1  0.66803197  0.04118134  0.65130974  1
  Cu  Cu21  1  0.16810163  0.03331453  0.56997368  1
  Cu  Cu22  1  0.50000885  0.03026388  0.56900154  1
  Cu  Cu23  1  0.83192032  0.03331485  0.56997294  1
  Cu  Cu24  1  0.16496489  0.37292847  0.62680919  1
  Cu  Cu25  1  0.50003090  0.37455155  0.62924285  1
  Cu  Cu26  1  0.83508716  0.37292960  0.62681044  1
  H  H27  1  0.50004248  0.18231635  0.68035561  1
