# generated using pymatgen
data_Cu24HC(Se6O)2
_symmetry_space_group_name_H-M   'P 1'
_cell_length_a   8.09471283
_cell_length_b   8.09451676
_cell_length_c   26.54075200
_cell_angle_alpha   85.62693029
_cell_angle_beta   85.62705062
_cell_angle_gamma   59.99922007
_symmetry_Int_Tables_number   1
_chemical_formula_structural   Cu24HC(Se6O)2
_chemical_formula_sum   'Cu24 H1 Se12 C1 O2'
_cell_volume   1500.17856456
_cell_formula_units_Z   1
loop_
 _symmetry_equiv_pos_site_id
 _symmetry_equiv_pos_as_xyz
  1  'x, y, z'
loop_
 _atom_site_type_symbol
 _atom_site_label
 _atom_site_symmetry_multiplicity
 _atom_site_fract_x
 _atom_site_fract_y
 _atom_site_fract_z
 _atom_site_occupancy
  Cu  Cu0  1  0.26562200  0.26563000  0.40625100  1
  Cu  Cu1  1  0.26384143  0.76586328  0.41073122  1
  Cu  Cu2  1  0.76519520  0.26371318  0.41138105  1
  Cu  Cu3  1  0.76543803  0.76629280  0.41016927  1
  Cu  Cu4  1  0.10937300  0.10937800  0.34374900  1
  Cu  Cu5  1  0.10937400  0.60937800  0.34374900  1
  Cu  Cu6  1  0.60937400  0.10937800  0.34374900  1
  Cu  Cu7  1  0.60937400  0.60937800  0.34374900  1
  Cu  Cu8  1  0.08072870  0.07633444  0.54319288  1
  Cu  Cu9  1  0.09312440  0.55238101  0.54478484  1
  Cu  Cu10  1  0.56018993  0.09161492  0.54273413  1
  Cu  Cu11  1  0.57902272  0.58274177  0.55023974  1
  Cu  Cu12  1  0.42093241  0.41722368  0.46822562  1
  Cu  Cu13  1  0.43189080  0.90587531  0.46871611  1
  Cu  Cu14  1  0.91137805  0.43168978  0.46775728  1
  Cu  Cu15  1  0.92497215  0.93065973  0.46707730  1
  Cu  Cu16  1  0.40744428  0.40494556  0.60839440  1
  Cu  Cu17  1  0.41092584  0.87259454  0.61083645  1
  Cu  Cu18  1  0.87803626  0.40799372  0.61039589  1
  Cu  Cu19  1  0.89448642  0.87539923  0.66299263  1
  Cu  Cu20  1  0.23516979  0.22637818  0.59167135  1
  Cu  Cu21  1  0.16789643  0.76502958  0.59519507  1
  Cu  Cu22  1  0.77086685  0.16056541  0.59559320  1
  Cu  Cu23  1  0.77091217  0.76808771  0.59353859  1
  Se  Se24  1  0.43749700  0.43750300  0.37500000  1
  Se  Se25  1  0.43749700  0.93750300  0.37500000  1
  Se  Se26  1  0.93749700  0.43750300  0.37500000  1
  Se  Se27  1  0.93749700  0.93750300  0.37500000  1
  Se  Se28  1  0.24534017  0.24420139  0.49806663  1
  Se  Se29  1  0.25053108  0.74430150  0.50306058  1
  Se  Se30  1  0.74553345  0.25583402  0.50361093  1
  Se  Se31  1  0.75469223  0.75355497  0.50263447  1
  Se  Se32  1  0.06657444  0.06388763  0.63961601  1
  Se  Se33  1  0.06541570  0.54485967  0.64079815  1
  Se  Se34  1  0.54624197  0.06364601  0.63870390  1
  Se  Se35  1  0.55844403  0.55341002  0.64296326  1
  C  C36  1  0.88095572  0.88891663  0.77608603  1
  O  O37  1  0.98726620  0.71654948  0.78847764  1
  O  O38  1  0.82416499  0.96350383  0.73208142  1
  H  H39  1  0.82512465  0.99663654  0.80587132  1
