# generated using pymatgen
data_Cu24HSe12
_symmetry_space_group_name_H-M   'P 1'
_cell_length_a   8.09471283
_cell_length_b   8.09451676
_cell_length_c   26.54075200
_cell_angle_alpha   85.62693029
_cell_angle_beta   85.62705062
_cell_angle_gamma   59.99922007
_symmetry_Int_Tables_number   1
_chemical_formula_structural   Cu24HSe12
_chemical_formula_sum   'Cu24 H1 Se12'
_cell_volume   1500.17856456
_cell_formula_units_Z   1
loop_
 _symmetry_equiv_pos_site_id
 _symmetry_equiv_pos_as_xyz
  1  'x, y, z'
loop_
 _atom_site_type_symbol
 _atom_site_label
 _atom_site_symmetry_multiplicity
 _atom_site_fract_x
 _atom_site_fract_y
 _atom_site_fract_z
 _atom_site_occupancy
  Cu  Cu0  1  0.26562200  0.26563000  0.40625100  1
  Cu  Cu1  1  0.26432717  0.77872831  0.41212639  1
  Cu  Cu2  1  0.76178018  0.27296313  0.40541506  1
  Cu  Cu3  1  0.76683094  0.78810046  0.41250217  1
  Cu  Cu4  1  0.10937300  0.10937800  0.34374900  1
  Cu  Cu5  1  0.10937400  0.60937800  0.34374900  1
  Cu  Cu6  1  0.60937400  0.10937800  0.34374900  1
  Cu  Cu7  1  0.60937400  0.60937800  0.34374900  1
  Cu  Cu8  1  0.00607278  0.17932747  0.55170309  1
  Cu  Cu9  1  0.93886298  0.52819762  0.56206683  1
  Cu  Cu10  1  0.57054547  0.13234210  0.54879911  1
  Cu  Cu11  1  0.64034260  0.46442458  0.54833630  1
  Cu  Cu12  1  0.46806199  0.40569474  0.47580836  1
  Cu  Cu13  1  0.27358101  0.94996615  0.48750475  1
  Cu  Cu14  1  0.96817631  0.48322780  0.46810119  1
  Cu  Cu15  1  0.85496125  0.83374329  0.50572939  1
  Cu  Cu16  1  0.38926480  0.43381227  0.60046687  1
  Cu  Cu17  1  0.56497797  0.56675538  0.63581879  1
  Cu  Cu18  1  0.92393649  0.34159381  0.64406760  1
  Cu  Cu19  1  0.87987544  0.84559572  0.60502961  1
  Cu  Cu20  1  0.24684167  0.21353116  0.59534311  1
  Cu  Cu21  1  0.30225585  0.77157859  0.57604324  1
  Cu  Cu22  1  0.72975440  0.20121652  0.61585723  1
  Cu  Cu23  1  0.60406707  0.80518578  0.57677718  1
  Se  Se24  1  0.43749700  0.43750300  0.37500000  1
  Se  Se25  1  0.43749700  0.93750300  0.37500000  1
  Se  Se26  1  0.93749700  0.43750300  0.37500000  1
  Se  Se27  1  0.93749700  0.93750300  0.37500000  1
  Se  Se28  1  0.26088071  0.23658822  0.50007763  1
  Se  Se29  1  0.19829062  0.70459880  0.49856085  1
  Se  Se30  1  0.79530623  0.16899525  0.49277663  1
  Se  Se31  1  0.64181155  0.71628118  0.49117575  1
  Se  Se32  1  0.06900644  0.99618097  0.63511307  1
  Se  Se33  1  0.08364574  0.53174446  0.63830754  1
  Se  Se34  1  0.54363096  0.02762482  0.63886714  1
  Se  Se35  1  0.69427928  0.48830386  0.71634327  1
  H  H36  1  0.72401357  0.65504504  0.71527154  1
