# generated using pymatgen
data_Cu24H4CSe12O
_symmetry_space_group_name_H-M   'P 1'
_cell_length_a   8.09471283
_cell_length_b   8.09451676
_cell_length_c   26.54075200
_cell_angle_alpha   85.62693029
_cell_angle_beta   85.62705062
_cell_angle_gamma   59.99922007
_symmetry_Int_Tables_number   1
_chemical_formula_structural   Cu24H4CSe12O
_chemical_formula_sum   'Cu24 H4 Se12 C1 O1'
_cell_volume   1500.17856456
_cell_formula_units_Z   1
loop_
 _symmetry_equiv_pos_site_id
 _symmetry_equiv_pos_as_xyz
  1  'x, y, z'
loop_
 _atom_site_type_symbol
 _atom_site_label
 _atom_site_symmetry_multiplicity
 _atom_site_fract_x
 _atom_site_fract_y
 _atom_site_fract_z
 _atom_site_occupancy
  Cu  Cu0  1  0.26562200  0.26563000  0.40625100  1
  Cu  Cu1  1  0.26656065  0.76465198  0.40614171  1
  Cu  Cu2  1  0.76646713  0.26698290  0.40697117  1
  Cu  Cu3  1  0.76378059  0.76352045  0.40822265  1
  Cu  Cu4  1  0.10937300  0.10937800  0.34374900  1
  Cu  Cu5  1  0.10937400  0.60937800  0.34374900  1
  Cu  Cu6  1  0.60937400  0.10937800  0.34374900  1
  Cu  Cu7  1  0.60937400  0.60937800  0.34374900  1
  Cu  Cu8  1  0.09732897  0.02666989  0.55296263  1
  Cu  Cu9  1  0.04452033  0.55904327  0.55385871  1
  Cu  Cu10  1  0.57611254  0.10690868  0.55416379  1
  Cu  Cu11  1  0.58345757  0.58524887  0.54004252  1
  Cu  Cu12  1  0.42096352  0.40441245  0.46841336  1
  Cu  Cu13  1  0.41866129  0.91886555  0.46892534  1
  Cu  Cu14  1  0.90505322  0.44030525  0.46978210  1
  Cu  Cu15  1  0.93115742  0.92868198  0.46588348  1
  Cu  Cu16  1  0.42058720  0.35097366  0.62555527  1
  Cu  Cu17  1  0.36417986  0.88395686  0.62616076  1
  Cu  Cu18  1  0.90241465  0.43042482  0.62755753  1
  Cu  Cu19  1  0.89767294  0.90429935  0.61516586  1
  Cu  Cu20  1  0.23498631  0.21525081  0.59151799  1
  Cu  Cu21  1  0.25162853  0.68377132  0.58803586  1
  Cu  Cu22  1  0.75920211  0.25430960  0.58915092  1
  Cu  Cu23  1  0.70168069  0.76112012  0.59055259  1
  Se  Se24  1  0.43749700  0.43750300  0.37500000  1
  Se  Se25  1  0.43749700  0.93750300  0.37500000  1
  Se  Se26  1  0.93749700  0.43750300  0.37500000  1
  Se  Se27  1  0.93749700  0.93750300  0.37500000  1
  Se  Se28  1  0.23568995  0.25218467  0.50149624  1
  Se  Se29  1  0.25254044  0.74490427  0.49938408  1
  Se  Se30  1  0.74473882  0.24968400  0.50006492  1
  Se  Se31  1  0.75140797  0.76647095  0.50093064  1
  Se  Se32  1  0.03473956  0.08958105  0.64572796  1
  Se  Se33  1  0.08397142  0.56801745  0.64717780  1
  Se  Se34  1  0.55903375  0.02346952  0.64731106  1
  Se  Se35  1  0.56316769  0.54820342  0.63799168  1
  C  C36  1  0.60860059  0.43454358  0.77798283  1
  O  O37  1  0.49293854  0.61557485  0.75242480  1
  H  H38  1  0.60708308  0.32464515  0.75622155  1
  H  H39  1  0.55108307  0.42836301  0.81676761  1
  H  H40  1  0.75827271  0.40077765  0.77984698  1
  H  H41  1  0.51113668  0.71133229  0.76803061  1
