# generated using pymatgen
data_Cu27HCO
_symmetry_space_group_name_H-M   'P 1'
_cell_length_a   7.56931204
_cell_length_b   6.17958932
_cell_length_c   26.20755800
_cell_angle_alpha   89.93253853
_cell_angle_beta   90.00615399
_cell_angle_gamma   90.00637696
_symmetry_Int_Tables_number   1
_chemical_formula_structural   Cu27HCO
_chemical_formula_sum   'Cu27 H1 C1 O1'
_cell_volume   1225.86394768
_cell_formula_units_Z   1
loop_
 _symmetry_equiv_pos_site_id
 _symmetry_equiv_pos_as_xyz
  1  'x, y, z'
loop_
 _atom_site_type_symbol
 _atom_site_label
 _atom_site_symmetry_multiplicity
 _atom_site_fract_x
 _atom_site_fract_y
 _atom_site_fract_z
 _atom_site_occupancy
  Cu  Cu0  1  0.00000100  0.70833300  0.43055600  1
  Cu  Cu1  1  0.33333400  0.70833300  0.43055600  1
  Cu  Cu2  1  0.66666700  0.70833300  0.43055600  1
  Cu  Cu3  1  0.00000100  0.04166600  0.48611100  1
  Cu  Cu4  1  0.33333400  0.04166600  0.48611100  1
  Cu  Cu5  1  0.66666700  0.04166600  0.48611100  1
  Cu  Cu6  1  0.99617520  0.36995975  0.54293094  1
  Cu  Cu7  1  0.33257293  0.36900089  0.54271517  1
  Cu  Cu8  1  0.66464503  0.37046543  0.54361989  1
  Cu  Cu9  1  0.16666700  0.37500000  0.45833300  1
  Cu  Cu10  1  0.50000000  0.37500000  0.45833300  1
  Cu  Cu11  1  0.83333400  0.37500000  0.45833300  1
  Cu  Cu12  1  0.16554043  0.70704517  0.51308249  1
  Cu  Cu13  1  0.49915989  0.70625783  0.51303851  1
  Cu  Cu14  1  0.83261714  0.70866367  0.51319002  1
  Cu  Cu15  1  0.99781253  0.69683496  0.59869838  1
  Cu  Cu16  1  0.33107398  0.69368505  0.59886651  1
  Cu  Cu17  1  0.66368918  0.69975701  0.59831881  1
  Cu  Cu18  1  0.99648946  0.02887352  0.65088524  1
  Cu  Cu19  1  0.32644072  0.02594391  0.65042496  1
  Cu  Cu20  1  0.65857734  0.03123710  0.65103580  1
  Cu  Cu21  1  0.16443395  0.03055184  0.56966375  1
  Cu  Cu22  1  0.49670813  0.02989561  0.56949006  1
  Cu  Cu23  1  0.82952750  0.03381792  0.57070062  1
  Cu  Cu24  1  0.16215202  0.36492549  0.62609703  1
  Cu  Cu25  1  0.49228786  0.36667083  0.62934433  1
  Cu  Cu26  1  0.83454956  0.37278941  0.62905387  1
  C  C27  1  0.57378877  0.37928984  0.70023771  1
  H  H28  1  0.47281089  0.36656488  0.73102248  1
  O  O29  1  0.72568016  0.43506595  0.71154242  1
