# generated using pymatgen
data_Cu24H2CSe12O
_symmetry_space_group_name_H-M   'P 1'
_cell_length_a   8.09471283
_cell_length_b   8.09451676
_cell_length_c   26.54075200
_cell_angle_alpha   85.62693029
_cell_angle_beta   85.62705062
_cell_angle_gamma   59.99922007
_symmetry_Int_Tables_number   1
_chemical_formula_structural   Cu24H2CSe12O
_chemical_formula_sum   'Cu24 H2 Se12 C1 O1'
_cell_volume   1500.17856456
_cell_formula_units_Z   1
loop_
 _symmetry_equiv_pos_site_id
 _symmetry_equiv_pos_as_xyz
  1  'x, y, z'
loop_
 _atom_site_type_symbol
 _atom_site_label
 _atom_site_symmetry_multiplicity
 _atom_site_fract_x
 _atom_site_fract_y
 _atom_site_fract_z
 _atom_site_occupancy
  Cu  Cu0  1  0.26562200  0.26563000  0.40625100  1
  Cu  Cu1  1  0.26782767  0.76461444  0.40681594  1
  Cu  Cu2  1  0.76444188  0.26793808  0.40682401  1
  Cu  Cu3  1  0.76436752  0.76462324  0.40718859  1
  Cu  Cu4  1  0.10937300  0.10937800  0.34374900  1
  Cu  Cu5  1  0.10937400  0.60937800  0.34374900  1
  Cu  Cu6  1  0.60937400  0.10937800  0.34374900  1
  Cu  Cu7  1  0.60937400  0.60937800  0.34374900  1
  Cu  Cu8  1  0.07295417  0.07401851  0.54998315  1
  Cu  Cu9  1  0.07589208  0.57222548  0.55038288  1
  Cu  Cu10  1  0.57204708  0.07681790  0.55020554  1
  Cu  Cu11  1  0.57670415  0.57922694  0.53653612  1
  Cu  Cu12  1  0.42518214  0.42499430  0.46913825  1
  Cu  Cu13  1  0.42518443  0.91345043  0.46926455  1
  Cu  Cu14  1  0.91465615  0.42452757  0.46921114  1
  Cu  Cu15  1  0.92132806  0.92238293  0.46462322  1
  Cu  Cu16  1  0.38920922  0.38939040  0.62162399  1
  Cu  Cu17  1  0.39256134  0.90241338  0.62242971  1
  Cu  Cu18  1  0.90251777  0.39295047  0.62223531  1
  Cu  Cu19  1  0.89780495  0.89786893  0.61840643  1
  Cu  Cu20  1  0.23247479  0.23230071  0.58916986  1
  Cu  Cu21  1  0.24114074  0.73064287  0.58981040  1
  Cu  Cu22  1  0.73011206  0.24164508  0.58985728  1
  Cu  Cu23  1  0.73222363  0.73325941  0.59047784  1
  Se  Se24  1  0.43749700  0.43750300  0.37500000  1
  Se  Se25  1  0.43749700  0.93750300  0.37500000  1
  Se  Se26  1  0.93749700  0.43750300  0.37500000  1
  Se  Se27  1  0.93749700  0.93750300  0.37500000  1
  Se  Se28  1  0.25053216  0.24917102  0.49962007  1
  Se  Se29  1  0.23951327  0.75412491  0.49986980  1
  Se  Se30  1  0.75434057  0.24015994  0.49991844  1
  Se  Se31  1  0.75450656  0.75335879  0.50029820  1
  Se  Se32  1  0.05827079  0.05853791  0.64467676  1
  Se  Se33  1  0.05559282  0.56229875  0.64485867  1
  Se  Se34  1  0.56229409  0.05548658  0.64472609  1
  Se  Se35  1  0.55860446  0.55878619  0.63186863  1
  C  C36  1  0.55213842  0.55198715  0.78343140  1
  O  O37  1  0.58248030  0.56577542  0.73809131  1
  H  H38  1  0.60674421  0.41027894  0.80381550  1
  H  H39  1  0.46953301  0.68084846  0.80620492  1
