# generated using pymatgen
data_Ni27H
_symmetry_space_group_name_H-M   'P 1'
_cell_length_a   7.33151102
_cell_length_b   7.33233304
_cell_length_c   24.19342100
_cell_angle_alpha   89.99505366
_cell_angle_beta   89.99585023
_cell_angle_gamma   89.99674115
_symmetry_Int_Tables_number   1
_chemical_formula_structural   Ni27H
_chemical_formula_sum   'Ni27 H1'
_cell_volume   1300.56766926
_cell_formula_units_Z   1
loop_
 _symmetry_equiv_pos_site_id
 _symmetry_equiv_pos_as_xyz
  1  'x, y, z'
loop_
 _atom_site_type_symbol
 _atom_site_label
 _atom_site_symmetry_multiplicity
 _atom_site_fract_x
 _atom_site_fract_y
 _atom_site_fract_z
 _atom_site_occupancy
  Ni  Ni0  1  0.00197844  0.33373211  0.53623320  1
  Ni  Ni1  1  0.99904701  0.66634050  0.53593556  1
  Ni  Ni2  1  0.99915172  0.99913979  0.53601390  1
  Ni  Ni3  1  0.33425549  0.33425303  0.53604934  1
  Ni  Ni4  1  0.33361347  0.66600572  0.53613248  1
  Ni  Ni5  1  0.33373666  0.00197600  0.53623276  1
  Ni  Ni6  1  0.66600768  0.33360861  0.53613240  1
  Ni  Ni7  1  0.66634470  0.66634154  0.53583301  1
  Ni  Ni8  1  0.66634309  0.99903491  0.53593498  1
  Ni  Ni9  1  0.00000100  0.33333200  0.39285700  1
  Ni  Ni10  1  0.00000100  0.66666500  0.39285700  1
  Ni  Ni11  1  0.00000100  0.99999800  0.39285700  1
  Ni  Ni12  1  0.33333400  0.33333200  0.39285700  1
  Ni  Ni13  1  0.33333400  0.66666500  0.39285700  1
  Ni  Ni14  1  0.33333400  0.99999800  0.39285700  1
  Ni  Ni15  1  0.66666800  0.33333200  0.39285700  1
  Ni  Ni16  1  0.66666800  0.66666500  0.39285700  1
  Ni  Ni17  1  0.66666800  0.99999800  0.39285700  1
  Ni  Ni18  1  0.16625000  0.16624800  0.46434200  1
  Ni  Ni19  1  0.16617100  0.49999700  0.46430000  1
  Ni  Ni20  1  0.16625000  0.83375200  0.46434900  1
  Ni  Ni21  1  0.49999800  0.16617000  0.46430000  1
  Ni  Ni22  1  0.49999700  0.49999700  0.46426600  1
  Ni  Ni23  1  0.49999700  0.83383000  0.46430900  1
  Ni  Ni24  1  0.83375200  0.16624900  0.46435000  1
  Ni  Ni25  1  0.83383100  0.49999600  0.46430800  1
  Ni  Ni26  1  0.83375200  0.83375100  0.46435700  1
  H  H27  1  0.33380397  0.33380204  0.59676094  1
