# generated using pymatgen
data_Cu27CO
_symmetry_space_group_name_H-M   'P 1'
_cell_length_a   7.56931204
_cell_length_b   6.17958932
_cell_length_c   26.20755800
_cell_angle_alpha   89.93253853
_cell_angle_beta   90.00615399
_cell_angle_gamma   90.00637696
_symmetry_Int_Tables_number   1
_chemical_formula_structural   Cu27CO
_chemical_formula_sum   'Cu27 C1 O1'
_cell_volume   1225.86394768
_cell_formula_units_Z   1
loop_
 _symmetry_equiv_pos_site_id
 _symmetry_equiv_pos_as_xyz
  1  'x, y, z'
loop_
 _atom_site_type_symbol
 _atom_site_label
 _atom_site_symmetry_multiplicity
 _atom_site_fract_x
 _atom_site_fract_y
 _atom_site_fract_z
 _atom_site_occupancy
  Cu  Cu0  1  0.00000100  0.70833300  0.43055600  1
  Cu  Cu1  1  0.33333400  0.70833300  0.43055600  1
  Cu  Cu2  1  0.66666700  0.70833300  0.43055600  1
  Cu  Cu3  1  0.00000100  0.04166600  0.48611100  1
  Cu  Cu4  1  0.33333400  0.04166600  0.48611100  1
  Cu  Cu5  1  0.66666700  0.04166600  0.48611100  1
  Cu  Cu6  1  0.00000755  0.37189813  0.54193386  1
  Cu  Cu7  1  0.33525107  0.37053748  0.54341143  1
  Cu  Cu8  1  0.66472523  0.37032382  0.54348790  1
  Cu  Cu9  1  0.16666700  0.37500000  0.45833300  1
  Cu  Cu10  1  0.50000000  0.37500000  0.45833300  1
  Cu  Cu11  1  0.83333400  0.37500000  0.45833300  1
  Cu  Cu12  1  0.16722311  0.70883012  0.51329794  1
  Cu  Cu13  1  0.50007568  0.70769055  0.51299412  1
  Cu  Cu14  1  0.83274967  0.70865698  0.51330708  1
  Cu  Cu15  1  0.00007841  0.69885430  0.59887734  1
  Cu  Cu16  1  0.33368594  0.69906151  0.59907123  1
  Cu  Cu17  1  0.66648308  0.69841750  0.59910645  1
  Cu  Cu18  1  0.00030629  0.03477532  0.65123639  1
  Cu  Cu19  1  0.33158368  0.03204259  0.65166393  1
  Cu  Cu20  1  0.66944652  0.03095346  0.65145968  1
  Cu  Cu21  1  0.16777727  0.03302684  0.57021171  1
  Cu  Cu22  1  0.50007125  0.03114438  0.56998015  1
  Cu  Cu23  1  0.83249794  0.03283115  0.57013522  1
  Cu  Cu24  1  0.16412791  0.36924430  0.62599360  1
  Cu  Cu25  1  0.50036540  0.37198847  0.63007111  1
  Cu  Cu26  1  0.83574046  0.36894864  0.62608124  1
  O  O27  1  0.48952926  0.36144245  0.74447775  1
  C  C28  1  0.49126519  0.34177061  0.70043283  1
