# generated using pymatgen
data_Cu24HCSe12O
_symmetry_space_group_name_H-M   'P 1'
_cell_length_a   8.09471283
_cell_length_b   8.09451676
_cell_length_c   26.54075200
_cell_angle_alpha   85.62693029
_cell_angle_beta   85.62705062
_cell_angle_gamma   59.99922007
_symmetry_Int_Tables_number   1
_chemical_formula_structural   Cu24HCSe12O
_chemical_formula_sum   'Cu24 H1 Se12 C1 O1'
_cell_volume   1500.17856456
_cell_formula_units_Z   1
loop_
 _symmetry_equiv_pos_site_id
 _symmetry_equiv_pos_as_xyz
  1  'x, y, z'
loop_
 _atom_site_type_symbol
 _atom_site_label
 _atom_site_symmetry_multiplicity
 _atom_site_fract_x
 _atom_site_fract_y
 _atom_site_fract_z
 _atom_site_occupancy
  Cu  Cu0  1  0.26562200  0.26563000  0.40625100  1
  Cu  Cu1  1  0.26567975  0.75813240  0.40781274  1
  Cu  Cu2  1  0.75886636  0.26507787  0.40839341  1
  Cu  Cu3  1  0.76189539  0.76286288  0.40700958  1
  Cu  Cu4  1  0.10937300  0.10937800  0.34374900  1
  Cu  Cu5  1  0.10937400  0.60937800  0.34374900  1
  Cu  Cu6  1  0.60937400  0.10937800  0.34374900  1
  Cu  Cu7  1  0.60937400  0.60937800  0.34374900  1
  Cu  Cu8  1  0.01774442  0.01418495  0.54968802  1
  Cu  Cu9  1  0.04586175  0.52644946  0.55173419  1
  Cu  Cu10  1  0.52275535  0.05073577  0.55120973  1
  Cu  Cu11  1  0.58537948  0.58260710  0.55554076  1
  Cu  Cu12  1  0.43990061  0.43856884  0.46721315  1
  Cu  Cu13  1  0.46736037  0.92647451  0.46854116  1
  Cu  Cu14  1  0.91461701  0.47297691  0.46933524  1
  Cu  Cu15  1  0.96334078  0.95879417  0.46434747  1
  Cu  Cu16  1  0.34646261  0.34525731  0.60749765  1
  Cu  Cu17  1  0.40502433  0.85669503  0.61950516  1
  Cu  Cu18  1  0.85501992  0.40885947  0.61977515  1
  Cu  Cu19  1  0.91013201  0.90828392  0.63349784  1
  Cu  Cu20  1  0.17820421  0.18051398  0.57661270  1
  Cu  Cu21  1  0.23145201  0.68644238  0.58771839  1
  Cu  Cu22  1  0.68900758  0.22986099  0.58862808  1
  Cu  Cu23  1  0.74440905  0.74913858  0.59537195  1
  Se  Se24  1  0.43749700  0.43750300  0.37500000  1
  Se  Se25  1  0.43749700  0.93750300  0.37500000  1
  Se  Se26  1  0.93749700  0.43750300  0.37500000  1
  Se  Se27  1  0.93749700  0.93750300  0.37500000  1
  Se  Se28  1  0.26712865  0.27353187  0.49682155  1
  Se  Se29  1  0.29722308  0.76288964  0.50183587  1
  Se  Se30  1  0.76337174  0.29239974  0.50233570  1
  Se  Se31  1  0.79323524  0.79671944  0.50033221  1
  Se  Se32  1  0.06835603  0.07152866  0.64732701  1
  Se  Se33  1  0.05014471  0.56828806  0.64433773  1
  Se  Se34  1  0.56869613  0.04921732  0.64456049  1
  Se  Se35  1  0.54584530  0.54725941  0.66398029  1
  C  C36  1  0.61304068  0.61140245  0.73081925  1
  H  H37  1  0.54887946  0.56090771  0.76237784  1
  O  O38  1  0.70490799  0.68812923  0.73387349  1
