# generated using pymatgen
data_Cu24CSe12O
_symmetry_space_group_name_H-M   'P 1'
_cell_length_a   8.09471283
_cell_length_b   8.09451676
_cell_length_c   26.54075200
_cell_angle_alpha   85.62693029
_cell_angle_beta   85.62705062
_cell_angle_gamma   59.99922007
_symmetry_Int_Tables_number   1
_chemical_formula_structural   Cu24CSe12O
_chemical_formula_sum   'Cu24 Se12 C1 O1'
_cell_volume   1500.17856456
_cell_formula_units_Z   1
loop_
 _symmetry_equiv_pos_site_id
 _symmetry_equiv_pos_as_xyz
  1  'x, y, z'
loop_
 _atom_site_type_symbol
 _atom_site_label
 _atom_site_symmetry_multiplicity
 _atom_site_fract_x
 _atom_site_fract_y
 _atom_site_fract_z
 _atom_site_occupancy
  Cu  Cu0  1  0.26562200  0.26563000  0.40625100  1
  Cu  Cu1  1  0.26699929  0.76525818  0.40796310  1
  Cu  Cu2  1  0.76463422  0.26785402  0.40787551  1
  Cu  Cu3  1  0.76525531  0.76579883  0.40831142  1
  Cu  Cu4  1  0.10937300  0.10937800  0.34374900  1
  Cu  Cu5  1  0.10937400  0.60937800  0.34374900  1
  Cu  Cu6  1  0.60937400  0.10937800  0.34374900  1
  Cu  Cu7  1  0.60937400  0.60937800  0.34374900  1
  Cu  Cu8  1  0.07220488  0.07403557  0.54898568  1
  Cu  Cu9  1  0.07889508  0.57046556  0.54890043  1
  Cu  Cu10  1  0.57091607  0.07995903  0.54905980  1
  Cu  Cu11  1  0.57678614  0.58124759  0.54467826  1
  Cu  Cu12  1  0.42444432  0.42290032  0.46861591  1
  Cu  Cu13  1  0.42135732  0.91788491  0.46859515  1
  Cu  Cu14  1  0.91864157  0.42012570  0.46860912  1
  Cu  Cu15  1  0.92034561  0.91802487  0.46654486  1
  Cu  Cu16  1  0.38984535  0.39016711  0.61943629  1
  Cu  Cu17  1  0.39853785  0.89380406  0.61926712  1
  Cu  Cu18  1  0.89601493  0.39798962  0.61943355  1
  Cu  Cu19  1  0.89833033  0.90151987  0.62133699  1
  Cu  Cu20  1  0.23138802  0.23017241  0.58958189  1
  Cu  Cu21  1  0.23685648  0.73126140  0.59086583  1
  Cu  Cu22  1  0.72979712  0.24056544  0.59061268  1
  Cu  Cu23  1  0.73853368  0.73869995  0.59117622  1
  Se  Se24  1  0.43749700  0.43750300  0.37500000  1
  Se  Se25  1  0.43749700  0.93750300  0.37500000  1
  Se  Se26  1  0.93749700  0.43750300  0.37500000  1
  Se  Se27  1  0.93749700  0.93750300  0.37500000  1
  Se  Se28  1  0.25023374  0.24877264  0.49972552  1
  Se  Se29  1  0.24391013  0.74991338  0.50081328  1
  Se  Se30  1  0.75237150  0.24083863  0.50070413  1
  Se  Se31  1  0.74930462  0.74716772  0.50101476  1
  Se  Se32  1  0.06211777  0.06079378  0.64378268  1
  Se  Se33  1  0.05453974  0.56187330  0.64366072  1
  Se  Se34  1  0.56039218  0.05427031  0.64371411  1
  Se  Se35  1  0.55632815  0.55407047  0.63917079  1
  O  O36  1  0.53054299  0.50775493  0.77271384  1
  C  C37  1  0.58687088  0.60400778  0.75459748  1
