# generated using pymatgen
data_Cu24HCSe12O
_symmetry_space_group_name_H-M   'P 1'
_cell_length_a   8.09471283
_cell_length_b   8.09451676
_cell_length_c   26.54075200
_cell_angle_alpha   85.62693029
_cell_angle_beta   85.62705062
_cell_angle_gamma   59.99922007
_symmetry_Int_Tables_number   1
_chemical_formula_structural   Cu24HCSe12O
_chemical_formula_sum   'Cu24 H1 Se12 C1 O1'
_cell_volume   1500.17856456
_cell_formula_units_Z   1
loop_
 _symmetry_equiv_pos_site_id
 _symmetry_equiv_pos_as_xyz
  1  'x, y, z'
loop_
 _atom_site_type_symbol
 _atom_site_label
 _atom_site_symmetry_multiplicity
 _atom_site_fract_x
 _atom_site_fract_y
 _atom_site_fract_z
 _atom_site_occupancy
  Cu  Cu0  1  0.26562200  0.26563000  0.40625100  1
  Cu  Cu1  1  0.25412742  0.78263933  0.41527779  1
  Cu  Cu2  1  0.76512896  0.27111121  0.40039503  1
  Cu  Cu3  1  0.75601761  0.77545739  0.40787083  1
  Cu  Cu4  1  0.10937300  0.10937800  0.34374900  1
  Cu  Cu5  1  0.10937400  0.60937800  0.34374900  1
  Cu  Cu6  1  0.60937400  0.10937800  0.34374900  1
  Cu  Cu7  1  0.60937400  0.60937800  0.34374900  1
  Cu  Cu8  1  0.24533284  0.01443790  0.55355400  1
  Cu  Cu9  1  0.94377826  0.72321301  0.56050099  1
  Cu  Cu10  1  0.62061271  0.04934587  0.55392019  1
  Cu  Cu11  1  0.54206038  0.45709316  0.55599619  1
  Cu  Cu12  1  0.48381554  0.46650146  0.46479500  1
  Cu  Cu13  1  0.46589814  0.84421727  0.47533924  1
  Cu  Cu14  1  0.02383573  0.31421901  0.50056263  1
  Cu  Cu15  1  0.91088855  0.88435589  0.47225481  1
  Cu  Cu16  1  0.51289133  0.26463090  0.62984771  1
  Cu  Cu17  1  0.40670294  0.02814801  0.62807078  1
  Cu  Cu18  1  0.90295147  0.40478703  0.61539354  1
  Cu  Cu19  1  0.77695954  0.89568434  0.63638429  1
  Cu  Cu20  1  0.22578614  0.34627554  0.57141298  1
  Cu  Cu21  1  0.23972427  0.73537191  0.60283267  1
  Cu  Cu22  1  0.84610260  0.14617439  0.58371977  1
  Cu  Cu23  1  0.61651705  0.73995989  0.57561772  1
  Se  Se24  1  0.43749700  0.43750300  0.37500000  1
  Se  Se25  1  0.43749700  0.93750300  0.37500000  1
  Se  Se26  1  0.93749700  0.43750300  0.37500000  1
  Se  Se27  1  0.93749700  0.93750300  0.37500000  1
  Se  Se28  1  0.35940794  0.19180772  0.49319722  1
  Se  Se29  1  0.23837035  0.74068712  0.50677049  1
  Se  Se30  1  0.79298864  0.21517623  0.49420043  1
  Se  Se31  1  0.80469715  0.65200816  0.49400087  1
  Se  Se32  1  0.09020342  0.05238727  0.63998902  1
  Se  Se33  1  0.07654775  0.55879426  0.63900836  1
  Se  Se34  1  0.43306242  0.13016101  0.71015513  1
  Se  Se35  1  0.56627387  0.53748261  0.63979283  1
  C  C36  1  0.70018894  0.96862459  0.70473585  1
  H  H37  1  0.92602886  0.85157505  0.74254016  1
  O  O38  1  0.78569923  0.93796868  0.74729532  1
