# generated using pymatgen
data_Cu24HCSe12O
_symmetry_space_group_name_H-M   'P 1'
_cell_length_a   8.09471283
_cell_length_b   8.09451676
_cell_length_c   26.54075200
_cell_angle_alpha   85.62693029
_cell_angle_beta   85.62705062
_cell_angle_gamma   59.99922007
_symmetry_Int_Tables_number   1
_chemical_formula_structural   Cu24HCSe12O
_chemical_formula_sum   'Cu24 H1 Se12 C1 O1'
_cell_volume   1500.17856456
_cell_formula_units_Z   1
loop_
 _symmetry_equiv_pos_site_id
 _symmetry_equiv_pos_as_xyz
  1  'x, y, z'
loop_
 _atom_site_type_symbol
 _atom_site_label
 _atom_site_symmetry_multiplicity
 _atom_site_fract_x
 _atom_site_fract_y
 _atom_site_fract_z
 _atom_site_occupancy
  Cu  Cu0  1  0.26562200  0.26563000  0.40625100  1
  Cu  Cu1  1  0.26546489  0.76563215  0.40742409  1
  Cu  Cu2  1  0.76667032  0.26415144  0.40774426  1
  Cu  Cu3  1  0.76690322  0.76530185  0.40767229  1
  Cu  Cu4  1  0.10937300  0.10937800  0.34374900  1
  Cu  Cu5  1  0.10937400  0.60937800  0.34374900  1
  Cu  Cu6  1  0.60937400  0.10937800  0.34374900  1
  Cu  Cu7  1  0.60937400  0.60937800  0.34374900  1
  Cu  Cu8  1  0.07052041  0.06845734  0.54553736  1
  Cu  Cu9  1  0.08189826  0.57453171  0.54534350  1
  Cu  Cu10  1  0.57329019  0.07886443  0.54567438  1
  Cu  Cu11  1  0.58663248  0.57729485  0.54911719  1
  Cu  Cu12  1  0.42051966  0.42177038  0.46747956  1
  Cu  Cu13  1  0.41922407  0.92542593  0.46775110  1
  Cu  Cu14  1  0.92361340  0.42185532  0.46809368  1
  Cu  Cu15  1  0.92187048  0.92305148  0.46965550  1
  Cu  Cu16  1  0.39196430  0.39137343  0.61850325  1
  Cu  Cu17  1  0.40493966  0.89171860  0.61914214  1
  Cu  Cu18  1  0.88688209  0.40348892  0.61942907  1
  Cu  Cu19  1  0.90792734  0.90095177  0.61578715  1
  Cu  Cu20  1  0.22786397  0.23091906  0.58888488  1
  Cu  Cu21  1  0.24687731  0.72825266  0.58960377  1
  Cu  Cu22  1  0.73055684  0.23870250  0.58994738  1
  Cu  Cu23  1  0.74316196  0.74030319  0.58970221  1
  Se  Se24  1  0.43749700  0.43750300  0.37500000  1
  Se  Se25  1  0.43749700  0.93750300  0.37500000  1
  Se  Se26  1  0.93749700  0.43750300  0.37500000  1
  Se  Se27  1  0.93749700  0.93750300  0.37500000  1
  Se  Se28  1  0.24980055  0.25167462  0.49918542  1
  Se  Se29  1  0.25108830  0.74983775  0.49975574  1
  Se  Se30  1  0.74702132  0.25472021  0.49994718  1
  Se  Se31  1  0.74566519  0.75028124  0.49978459  1
  Se  Se32  1  0.06510455  0.06502695  0.64086721  1
  Se  Se33  1  0.05596463  0.56203127  0.63959655  1
  Se  Se34  1  0.56599872  0.05670904  0.63987807  1
  Se  Se35  1  0.55119517  0.55663416  0.64399666  1
  C  C36  1  0.94794187  0.89917094  0.75147278  1
  H  H37  1  0.93752451  0.88860560  0.79399556  1
  O  O38  1  0.86169163  0.86098562  0.72486411  1
