# generated using pymatgen
data_Cu24HC(Se6O)2
_symmetry_space_group_name_H-M   'P 1'
_cell_length_a   8.09471283
_cell_length_b   8.09451676
_cell_length_c   26.54075200
_cell_angle_alpha   85.62693029
_cell_angle_beta   85.62705062
_cell_angle_gamma   59.99922007
_symmetry_Int_Tables_number   1
_chemical_formula_structural   Cu24HC(Se6O)2
_chemical_formula_sum   'Cu24 H1 Se12 C1 O2'
_cell_volume   1500.17856456
_cell_formula_units_Z   1
loop_
 _symmetry_equiv_pos_site_id
 _symmetry_equiv_pos_as_xyz
  1  'x, y, z'
loop_
 _atom_site_type_symbol
 _atom_site_label
 _atom_site_symmetry_multiplicity
 _atom_site_fract_x
 _atom_site_fract_y
 _atom_site_fract_z
 _atom_site_occupancy
  Cu  Cu0  1  0.26562200  0.26563000  0.40625100  1
  Cu  Cu1  1  0.26564528  0.76343744  0.40786839  1
  Cu  Cu2  1  0.76807358  0.26420445  0.40763680  1
  Cu  Cu3  1  0.76345330  0.76349567  0.40804010  1
  Cu  Cu4  1  0.10937300  0.10937800  0.34374900  1
  Cu  Cu5  1  0.10937400  0.60937800  0.34374900  1
  Cu  Cu6  1  0.60937400  0.10937800  0.34374900  1
  Cu  Cu7  1  0.60937400  0.60937800  0.34374900  1
  Cu  Cu8  1  0.06674053  0.09237044  0.54583772  1
  Cu  Cu9  1  0.07037617  0.56830633  0.54779527  1
  Cu  Cu10  1  0.55978169  0.06841473  0.54604902  1
  Cu  Cu11  1  0.56586453  0.56834744  0.55449133  1
  Cu  Cu12  1  0.40785174  0.43476184  0.47028402  1
  Cu  Cu13  1  0.42853843  0.92101926  0.47082359  1
  Cu  Cu14  1  0.90400442  0.42733226  0.47094420  1
  Cu  Cu15  1  0.92366892  0.93087826  0.46761007  1
  Cu  Cu16  1  0.40439518  0.41544755  0.61790624  1
  Cu  Cu17  1  0.40057823  0.87242363  0.62093048  1
  Cu  Cu18  1  0.87244762  0.39953764  0.61665992  1
  Cu  Cu19  1  0.88526568  0.88566924  0.62726555  1
  Cu  Cu20  1  0.23335889  0.23266391  0.59284660  1
  Cu  Cu21  1  0.21266678  0.74716759  0.58867106  1
  Cu  Cu22  1  0.73417621  0.21582724  0.58905358  1
  Cu  Cu23  1  0.72881680  0.73311839  0.58917217  1
  Se  Se24  1  0.43749700  0.43750300  0.37500000  1
  Se  Se25  1  0.43749700  0.93750300  0.37500000  1
  Se  Se26  1  0.93749700  0.43750300  0.37500000  1
  Se  Se27  1  0.93749700  0.93750300  0.37500000  1
  Se  Se28  1  0.24139678  0.25542723  0.49956891  1
  Se  Se29  1  0.24720630  0.76093299  0.49899748  1
  Se  Se30  1  0.73723984  0.25413319  0.49874160  1
  Se  Se31  1  0.75877341  0.75661699  0.49887961  1
  Se  Se32  1  0.05389800  0.05465196  0.63994991  1
  Se  Se33  1  0.06132949  0.54772286  0.64110792  1
  Se  Se34  1  0.54649682  0.06658061  0.64019014  1
  Se  Se35  1  0.55795797  0.55789948  0.66883768  1
  C  C36  1  0.55706982  0.54929241  0.74475100  1
  O  O37  1  0.46728314  0.72751377  0.76188755  1
  O  O38  1  0.62907926  0.40382186  0.77181958  1
  H  H39  1  0.46928784  0.72047063  0.79942051  1
