# generated using pymatgen
data_Cu24HC(Se6O)2
_symmetry_space_group_name_H-M   'P 1'
_cell_length_a   8.09471283
_cell_length_b   8.09451676
_cell_length_c   26.54075200
_cell_angle_alpha   85.62693029
_cell_angle_beta   85.62705062
_cell_angle_gamma   59.99922007
_symmetry_Int_Tables_number   1
_chemical_formula_structural   Cu24HC(Se6O)2
_chemical_formula_sum   'Cu24 H1 Se12 C1 O2'
_cell_volume   1500.17856456
_cell_formula_units_Z   1
loop_
 _symmetry_equiv_pos_site_id
 _symmetry_equiv_pos_as_xyz
  1  'x, y, z'
loop_
 _atom_site_type_symbol
 _atom_site_label
 _atom_site_symmetry_multiplicity
 _atom_site_fract_x
 _atom_site_fract_y
 _atom_site_fract_z
 _atom_site_occupancy
  Cu  Cu0  1  0.26562200  0.26563000  0.40625100  1
  Cu  Cu1  1  0.26678061  0.76483155  0.40742288  1
  Cu  Cu2  1  0.76518017  0.26619688  0.40731811  1
  Cu  Cu3  1  0.76510217  0.76493359  0.40803073  1
  Cu  Cu4  1  0.10937300  0.10937800  0.34374900  1
  Cu  Cu5  1  0.10937400  0.60937800  0.34374900  1
  Cu  Cu6  1  0.60937400  0.10937800  0.34374900  1
  Cu  Cu7  1  0.60937400  0.60937800  0.34374900  1
  Cu  Cu8  1  0.08250464  0.08532860  0.54600226  1
  Cu  Cu9  1  0.07295545  0.56616812  0.54768250  1
  Cu  Cu10  1  0.57035336  0.07577141  0.54674034  1
  Cu  Cu11  1  0.56916140  0.57111787  0.55021988  1
  Cu  Cu12  1  0.42645956  0.42855185  0.46848294  1
  Cu  Cu13  1  0.42010296  0.91882027  0.46881576  1
  Cu  Cu14  1  0.92143564  0.42102821  0.46877154  1
  Cu  Cu15  1  0.91629315  0.92117769  0.46766114  1
  Cu  Cu16  1  0.40980532  0.40974687  0.61603176  1
  Cu  Cu17  1  0.40287152  0.87674183  0.62019765  1
  Cu  Cu18  1  0.88207261  0.40289406  0.61752492  1
  Cu  Cu19  1  0.89028112  0.89006480  0.62949701  1
  Cu  Cu20  1  0.23893051  0.23209908  0.59272553  1
  Cu  Cu21  1  0.21694495  0.74549704  0.58917690  1
  Cu  Cu22  1  0.74526817  0.21790019  0.58942652  1
  Cu  Cu23  1  0.73494160  0.73911037  0.59014434  1
  Se  Se24  1  0.43749700  0.43750300  0.37500000  1
  Se  Se25  1  0.43749700  0.93750300  0.37500000  1
  Se  Se26  1  0.93749700  0.43750300  0.37500000  1
  Se  Se27  1  0.93749700  0.93750300  0.37500000  1
  Se  Se28  1  0.25335337  0.25172843  0.49984500  1
  Se  Se29  1  0.24242882  0.75398984  0.49946167  1
  Se  Se30  1  0.75235261  0.24662620  0.49939350  1
  Se  Se31  1  0.74780640  0.74865134  0.50018080  1
  Se  Se32  1  0.05817682  0.05817527  0.64069099  1
  Se  Se33  1  0.06640542  0.55144656  0.64155941  1
  Se  Se34  1  0.55152411  0.06494441  0.64123151  1
  Se  Se35  1  0.56187450  0.55727700  0.66258085  1
  C  C36  1  0.56227383  0.54620804  0.73935164  1
  O  O37  1  0.46817163  0.72377037  0.75593818  1
  O  O38  1  0.63697652  0.39837888  0.76484578  1
  H  H39  1  0.46731397  0.71928747  0.79356053  1
