# generated using pymatgen
data_Cu27H
_symmetry_space_group_name_H-M   'P 1'
_cell_length_a   7.56931204
_cell_length_b   6.17958932
_cell_length_c   26.20755800
_cell_angle_alpha   89.93253853
_cell_angle_beta   90.00615399
_cell_angle_gamma   90.00637696
_symmetry_Int_Tables_number   1
_chemical_formula_structural   Cu27H
_chemical_formula_sum   'Cu27 H1'
_cell_volume   1225.86394768
_cell_formula_units_Z   1
loop_
 _symmetry_equiv_pos_site_id
 _symmetry_equiv_pos_as_xyz
  1  'x, y, z'
loop_
 _atom_site_type_symbol
 _atom_site_label
 _atom_site_symmetry_multiplicity
 _atom_site_fract_x
 _atom_site_fract_y
 _atom_site_fract_z
 _atom_site_occupancy
  Cu  Cu0  1  0.00000100  0.70833300  0.43055600  1
  Cu  Cu1  1  0.33333400  0.70833300  0.43055600  1
  Cu  Cu2  1  0.66666700  0.70833300  0.43055600  1
  Cu  Cu3  1  0.00000100  0.04166600  0.48611100  1
  Cu  Cu4  1  0.33333400  0.04166600  0.48611100  1
  Cu  Cu5  1  0.66666700  0.04166600  0.48611100  1
  Cu  Cu6  1  0.99984318  0.37236387  0.54255683  1
  Cu  Cu7  1  0.33335371  0.37304117  0.54326588  1
  Cu  Cu8  1  0.66682021  0.37236387  0.54255603  1
  Cu  Cu9  1  0.16666700  0.37500000  0.45833300  1
  Cu  Cu10  1  0.50000000  0.37500000  0.45833300  1
  Cu  Cu11  1  0.83333400  0.37500000  0.45833300  1
  Cu  Cu12  1  0.16775519  0.70835367  0.51493569  1
  Cu  Cu13  1  0.49890728  0.70835310  0.51493306  1
  Cu  Cu14  1  0.83335103  0.70872941  0.51353485  1
  Cu  Cu15  1  0.99817834  0.69705475  0.59977732  1
  Cu  Cu16  1  0.33336816  0.69601905  0.60234453  1
  Cu  Cu17  1  0.66849442  0.69704921  0.59977457  1
  Cu  Cu18  1  0.99895853  0.03782265  0.65107606  1
  Cu  Cu19  1  0.33334856  0.03796745  0.65202873  1
  Cu  Cu20  1  0.66767608  0.03781530  0.65107473  1
  Cu  Cu21  1  0.16618457  0.03363808  0.56940333  1
  Cu  Cu22  1  0.50048121  0.03362923  0.56939997  1
  Cu  Cu23  1  0.83334077  0.03091118  0.56971703  1
  Cu  Cu24  1  0.16631915  0.36582499  0.62734541  1
  Cu  Cu25  1  0.50037635  0.36582209  0.62734719  1
  Cu  Cu26  1  0.83335348  0.36787119  0.62728836  1
  H  H27  1  0.33330135  0.77745104  0.66223607  1
