# generated using pymatgen
data_Cu24HC(Se6O)2
_symmetry_space_group_name_H-M   'P 1'
_cell_length_a   8.09471283
_cell_length_b   8.09451676
_cell_length_c   26.54075200
_cell_angle_alpha   85.62693029
_cell_angle_beta   85.62705062
_cell_angle_gamma   59.99922007
_symmetry_Int_Tables_number   1
_chemical_formula_structural   Cu24HC(Se6O)2
_chemical_formula_sum   'Cu24 H1 Se12 C1 O2'
_cell_volume   1500.17856456
_cell_formula_units_Z   1
loop_
 _symmetry_equiv_pos_site_id
 _symmetry_equiv_pos_as_xyz
  1  'x, y, z'
loop_
 _atom_site_type_symbol
 _atom_site_label
 _atom_site_symmetry_multiplicity
 _atom_site_fract_x
 _atom_site_fract_y
 _atom_site_fract_z
 _atom_site_occupancy
  Cu  Cu0  1  0.26562200  0.26563000  0.40625100  1
  Cu  Cu1  1  0.26305311  0.76568739  0.41101701  1
  Cu  Cu2  1  0.76580371  0.26371224  0.41044672  1
  Cu  Cu3  1  0.76658884  0.76623005  0.41097486  1
  Cu  Cu4  1  0.10937300  0.10937800  0.34374900  1
  Cu  Cu5  1  0.10937400  0.60937800  0.34374900  1
  Cu  Cu6  1  0.60937400  0.10937800  0.34374900  1
  Cu  Cu7  1  0.60937400  0.60937800  0.34374900  1
  Cu  Cu8  1  0.08009601  0.08082976  0.54369791  1
  Cu  Cu9  1  0.09051046  0.56444731  0.54182153  1
  Cu  Cu10  1  0.55715151  0.09298173  0.54397646  1
  Cu  Cu11  1  0.57924437  0.57647242  0.55175379  1
  Cu  Cu12  1  0.41968003  0.42107690  0.46874493  1
  Cu  Cu13  1  0.42897128  0.91510946  0.46741693  1
  Cu  Cu14  1  0.91207288  0.42906058  0.46826687  1
  Cu  Cu15  1  0.92649873  0.92131570  0.46797496  1
  Cu  Cu16  1  0.40720074  0.40770453  0.60851896  1
  Cu  Cu17  1  0.40969462  0.87914349  0.61073608  1
  Cu  Cu18  1  0.87334318  0.41266931  0.61151056  1
  Cu  Cu19  1  0.88526857  0.89981722  0.66027627  1
  Cu  Cu20  1  0.22907903  0.23731435  0.59089955  1
  Cu  Cu21  1  0.17034023  0.76887592  0.59493713  1
  Cu  Cu22  1  0.76485537  0.17551451  0.59433158  1
  Cu  Cu23  1  0.76899941  0.77255716  0.59329386  1
  Se  Se24  1  0.43749700  0.43750300  0.37500000  1
  Se  Se25  1  0.43749700  0.93750300  0.37500000  1
  Se  Se26  1  0.93749700  0.43750300  0.37500000  1
  Se  Se27  1  0.93749700  0.93750300  0.37500000  1
  Se  Se28  1  0.24589756  0.24564341  0.49809987  1
  Se  Se29  1  0.25488919  0.74725323  0.50302949  1
  Se  Se30  1  0.74756352  0.24973230  0.50263670  1
  Se  Se31  1  0.74911720  0.75040780  0.50309228  1
  Se  Se32  1  0.06450074  0.06703005  0.64102646  1
  Se  Se33  1  0.06541684  0.54714246  0.63761923  1
  Se  Se34  1  0.54625662  0.06633318  0.64024781  1
  Se  Se35  1  0.55372936  0.55914337  0.64448208  1
  C  C36  1  0.88792465  0.87206389  0.77447752  1
  O  O37  1  0.93691744  0.77385290  0.81523016  1
  O  O38  1  0.89735091  0.80349058  0.73195915  1
  H  H39  1  0.83124701  0.02922667  0.77523198  1
