# generated using pymatgen
data_Cu24HSe12
_symmetry_space_group_name_H-M   'P 1'
_cell_length_a   8.09471283
_cell_length_b   8.09451676
_cell_length_c   26.54075200
_cell_angle_alpha   85.62693029
_cell_angle_beta   85.62705062
_cell_angle_gamma   59.99922007
_symmetry_Int_Tables_number   1
_chemical_formula_structural   Cu24HSe12
_chemical_formula_sum   'Cu24 H1 Se12'
_cell_volume   1500.17856456
_cell_formula_units_Z   1
loop_
 _symmetry_equiv_pos_site_id
 _symmetry_equiv_pos_as_xyz
  1  'x, y, z'
loop_
 _atom_site_type_symbol
 _atom_site_label
 _atom_site_symmetry_multiplicity
 _atom_site_fract_x
 _atom_site_fract_y
 _atom_site_fract_z
 _atom_site_occupancy
  Cu  Cu0  1  0.26562200  0.26563000  0.40625100  1
  Cu  Cu1  1  0.26713115  0.76350829  0.41229017  1
  Cu  Cu2  1  0.76349867  0.26716834  0.41228781  1
  Cu  Cu3  1  0.76387219  0.76385427  0.41192412  1
  Cu  Cu4  1  0.10937300  0.10937800  0.34374900  1
  Cu  Cu5  1  0.10937400  0.60937800  0.34374900  1
  Cu  Cu6  1  0.60937400  0.10937800  0.34374900  1
  Cu  Cu7  1  0.60937400  0.60937800  0.34374900  1
  Cu  Cu8  1  0.08777165  0.08784680  0.54562648  1
  Cu  Cu9  1  0.09117751  0.54790210  0.54534322  1
  Cu  Cu10  1  0.54792424  0.09144564  0.54536483  1
  Cu  Cu11  1  0.57903926  0.57906631  0.54226739  1
  Cu  Cu12  1  0.42831553  0.42825858  0.47050668  1
  Cu  Cu13  1  0.43381191  0.89946440  0.47065325  1
  Cu  Cu14  1  0.89960753  0.43386660  0.47068016  1
  Cu  Cu15  1  0.92532628  0.92531767  0.46409238  1
  Cu  Cu16  1  0.40776246  0.40784479  0.60677852  1
  Cu  Cu17  1  0.40868907  0.87966926  0.60680549  1
  Cu  Cu18  1  0.87966872  0.40872496  0.60679773  1
  Cu  Cu19  1  0.88752763  0.88756163  0.67256488  1
  Cu  Cu20  1  0.23337612  0.23337913  0.59617362  1
  Cu  Cu21  1  0.13374392  0.78351027  0.59607451  1
  Cu  Cu22  1  0.78344185  0.13392748  0.59610104  1
  Cu  Cu23  1  0.78468364  0.78475945  0.59566665  1
  Se  Se24  1  0.43749700  0.43750300  0.37500000  1
  Se  Se25  1  0.43749700  0.93750300  0.37500000  1
  Se  Se26  1  0.93749700  0.43750300  0.37500000  1
  Se  Se27  1  0.93749700  0.93750300  0.37500000  1
  Se  Se28  1  0.24847951  0.24834676  0.49696878  1
  Se  Se29  1  0.24005412  0.75280939  0.50434680  1
  Se  Se30  1  0.75289746  0.24007222  0.50433996  1
  Se  Se31  1  0.75704117  0.75717445  0.50399363  1
  Se  Se32  1  0.06549962  0.06547158  0.64184256  1
  Se  Se33  1  0.06524104  0.54720871  0.64187005  1
  Se  Se34  1  0.54718143  0.06526799  0.64187557  1
  Se  Se35  1  0.56015138  0.56013619  0.63600842  1
  H  H36  1  0.87857629  0.87861513  0.73014866  1
