# generated using pymatgen
data_Cu24H4CSe12O
_symmetry_space_group_name_H-M   'P 1'
_cell_length_a   8.09471283
_cell_length_b   8.09451676
_cell_length_c   26.54075200
_cell_angle_alpha   85.62693029
_cell_angle_beta   85.62705062
_cell_angle_gamma   59.99922007
_symmetry_Int_Tables_number   1
_chemical_formula_structural   Cu24H4CSe12O
_chemical_formula_sum   'Cu24 H4 Se12 C1 O1'
_cell_volume   1500.17856456
_cell_formula_units_Z   1
loop_
 _symmetry_equiv_pos_site_id
 _symmetry_equiv_pos_as_xyz
  1  'x, y, z'
loop_
 _atom_site_type_symbol
 _atom_site_label
 _atom_site_symmetry_multiplicity
 _atom_site_fract_x
 _atom_site_fract_y
 _atom_site_fract_z
 _atom_site_occupancy
  Cu  Cu0  1  0.26562200  0.26563000  0.40625100  1
  Cu  Cu1  1  0.26291465  0.76309597  0.40868164  1
  Cu  Cu2  1  0.77143599  0.25773748  0.40984179  1
  Cu  Cu3  1  0.76597401  0.76528834  0.40848520  1
  Cu  Cu4  1  0.10937300  0.10937800  0.34374900  1
  Cu  Cu5  1  0.10937400  0.60937800  0.34374900  1
  Cu  Cu6  1  0.60937400  0.10937800  0.34374900  1
  Cu  Cu7  1  0.60937400  0.60937800  0.34374900  1
  Cu  Cu8  1  0.06016209  0.08627923  0.53950967  1
  Cu  Cu9  1  0.12887977  0.56704751  0.54414580  1
  Cu  Cu10  1  0.54816634  0.06090877  0.54440601  1
  Cu  Cu11  1  0.59626777  0.56216197  0.55492586  1
  Cu  Cu12  1  0.38711271  0.44265740  0.46736321  1
  Cu  Cu13  1  0.44491639  0.94434924  0.46855443  1
  Cu  Cu14  1  0.88811550  0.41942389  0.46851161  1
  Cu  Cu15  1  0.93503678  0.92460041  0.46982752  1
  Cu  Cu16  1  0.39941267  0.40531784  0.60963562  1
  Cu  Cu17  1  0.42952498  0.88504465  0.61046080  1
  Cu  Cu18  1  0.85683385  0.40566500  0.62041101  1
  Cu  Cu19  1  0.90321255  0.88219543  0.64778055  1
  Cu  Cu20  1  0.21576217  0.23917633  0.58932086  1
  Cu  Cu21  1  0.21471031  0.76211706  0.59360223  1
  Cu  Cu22  1  0.75550562  0.18014128  0.59074506  1
  Cu  Cu23  1  0.78369966  0.73868575  0.58934760  1
  Se  Se24  1  0.43749700  0.43750300  0.37500000  1
  Se  Se25  1  0.43749700  0.93750300  0.37500000  1
  Se  Se26  1  0.93749700  0.43750300  0.37500000  1
  Se  Se27  1  0.93749700  0.93750300  0.37500000  1
  Se  Se28  1  0.21876058  0.26751651  0.49818392  1
  Se  Se29  1  0.26254759  0.76631189  0.50103393  1
  Se  Se30  1  0.71276762  0.25974226  0.50179884  1
  Se  Se31  1  0.76245853  0.74397782  0.50069769  1
  Se  Se32  1  0.06441341  0.06810397  0.63842696  1
  Se  Se33  1  0.05664358  0.54313438  0.64036238  1
  Se  Se34  1  0.55299105  0.07127556  0.63912547  1
  Se  Se35  1  0.52821011  0.57513849  0.64779465  1
  C  C36  1  0.95330031  0.76258803  0.76292432  1
  O  O37  1  0.83996447  0.92208065  0.72890036  1
  H  H38  1  0.95406495  0.63798894  0.74887565  1
  H  H39  1  0.88798123  0.78962241  0.80148737  1
  H  H40  1  0.10131291  0.73481154  0.76263887  1
  H  H41  1  0.84016831  0.03564384  0.73938922  1
