# generated using pymatgen
data_Cu27HCO2
_symmetry_space_group_name_H-M   'P 1'
_cell_length_a   7.56931204
_cell_length_b   6.17958932
_cell_length_c   26.20755800
_cell_angle_alpha   89.93253853
_cell_angle_beta   90.00615399
_cell_angle_gamma   90.00637696
_symmetry_Int_Tables_number   1
_chemical_formula_structural   Cu27HCO2
_chemical_formula_sum   'Cu27 H1 C1 O2'
_cell_volume   1225.86394768
_cell_formula_units_Z   1
loop_
 _symmetry_equiv_pos_site_id
 _symmetry_equiv_pos_as_xyz
  1  'x, y, z'
loop_
 _atom_site_type_symbol
 _atom_site_label
 _atom_site_symmetry_multiplicity
 _atom_site_fract_x
 _atom_site_fract_y
 _atom_site_fract_z
 _atom_site_occupancy
  Cu  Cu0  1  0.00000100  0.70833300  0.43055600  1
  Cu  Cu1  1  0.33333400  0.70833300  0.43055600  1
  Cu  Cu2  1  0.66666700  0.70833300  0.43055600  1
  Cu  Cu3  1  0.00000100  0.04166600  0.48611100  1
  Cu  Cu4  1  0.33333400  0.04166600  0.48611100  1
  Cu  Cu5  1  0.66666700  0.04166600  0.48611100  1
  Cu  Cu6  1  0.00001387  0.37064331  0.54270499  1
  Cu  Cu7  1  0.33492716  0.37007145  0.54320763  1
  Cu  Cu8  1  0.66510265  0.37007310  0.54320657  1
  Cu  Cu9  1  0.16666700  0.37500000  0.45833300  1
  Cu  Cu10  1  0.50000000  0.37500000  0.45833300  1
  Cu  Cu11  1  0.83333400  0.37500000  0.45833300  1
  Cu  Cu12  1  0.16596239  0.70793761  0.51318467  1
  Cu  Cu13  1  0.50001071  0.70761729  0.51318595  1
  Cu  Cu14  1  0.83405582  0.70793937  0.51318518  1
  Cu  Cu15  1  0.00002787  0.69674811  0.59956998  1
  Cu  Cu16  1  0.33261979  0.69935384  0.59838783  1
  Cu  Cu17  1  0.66742886  0.69934918  0.59839021  1
  Cu  Cu18  1  0.00001433  0.03444374  0.65175272  1
  Cu  Cu19  1  0.33005756  0.02834663  0.65227481  1
  Cu  Cu20  1  0.66997010  0.02832964  0.65227466  1
  Cu  Cu21  1  0.16772798  0.03220311  0.57066937  1
  Cu  Cu22  1  0.50001360  0.03203016  0.57069809  1
  Cu  Cu23  1  0.83229357  0.03220169  0.57066947  1
  Cu  Cu24  1  0.16584144  0.36820169  0.62680365  1
  Cu  Cu25  1  0.50002737  0.37266902  0.62996731  1
  Cu  Cu26  1  0.83420804  0.36819312  0.62680354  1
  C  C27  1  0.50005123  0.38594550  0.70470266  1
  O  O28  1  0.50011377  0.54477450  0.73182709  1
  O  O29  1  0.49998961  0.17762371  0.72610592  1
  H  H30  1  0.50000939  0.18317577  0.76425257  1
