# generated using pymatgen
data_Cu27CO
_symmetry_space_group_name_H-M   'P 1'
_cell_length_a   7.56931204
_cell_length_b   6.17958932
_cell_length_c   26.20755800
_cell_angle_alpha   89.93253853
_cell_angle_beta   90.00615399
_cell_angle_gamma   90.00637696
_symmetry_Int_Tables_number   1
_chemical_formula_structural   Cu27CO
_chemical_formula_sum   'Cu27 C1 O1'
_cell_volume   1225.86394768
_cell_formula_units_Z   1
loop_
 _symmetry_equiv_pos_site_id
 _symmetry_equiv_pos_as_xyz
  1  'x, y, z'
loop_
 _atom_site_type_symbol
 _atom_site_label
 _atom_site_symmetry_multiplicity
 _atom_site_fract_x
 _atom_site_fract_y
 _atom_site_fract_z
 _atom_site_occupancy
  Cu  Cu0  1  0.00000100  0.70833300  0.43055600  1
  Cu  Cu1  1  0.33333400  0.70833300  0.43055600  1
  Cu  Cu2  1  0.66666700  0.70833300  0.43055600  1
  Cu  Cu3  1  0.00000100  0.04166600  0.48611100  1
  Cu  Cu4  1  0.33333400  0.04166600  0.48611100  1
  Cu  Cu5  1  0.66666700  0.04166600  0.48611100  1
  Cu  Cu6  1  0.99966152  0.37667612  0.54192134  1
  Cu  Cu7  1  0.33400044  0.37679398  0.54316931  1
  Cu  Cu8  1  0.66549279  0.37745117  0.54326723  1
  Cu  Cu9  1  0.16666700  0.37500000  0.45833300  1
  Cu  Cu10  1  0.50000000  0.37500000  0.45833300  1
  Cu  Cu11  1  0.83333400  0.37500000  0.45833300  1
  Cu  Cu12  1  0.16701030  0.71105158  0.51429347  1
  Cu  Cu13  1  0.50004037  0.70961855  0.51398281  1
  Cu  Cu14  1  0.83284777  0.71131939  0.51444330  1
  Cu  Cu15  1  0.99976957  0.70950376  0.59983908  1
  Cu  Cu16  1  0.33270619  0.71174715  0.60031043  1
  Cu  Cu17  1  0.66675399  0.71303048  0.60079571  1
  Cu  Cu18  1  0.99860546  0.04901616  0.65034862  1
  Cu  Cu19  1  0.33017231  0.05099043  0.65151661  1
  Cu  Cu20  1  0.66665579  0.05406039  0.65210485  1
  Cu  Cu21  1  0.16740615  0.04002299  0.56961525  1
  Cu  Cu22  1  0.49969887  0.03806899  0.56825519  1
  Cu  Cu23  1  0.83117176  0.04052907  0.56980475  1
  Cu  Cu24  1  0.16350104  0.38171380  0.62575357  1
  Cu  Cu25  1  0.49937072  0.38994801  0.62809761  1
  Cu  Cu26  1  0.83534814  0.38241187  0.62592388  1
  O  O27  1  0.49291290  0.28806022  0.73784834  1
  C  C28  1  0.49534701  0.21762663  0.69500853  1
