# generated using pymatgen
data_Cu24HCSe12O
_symmetry_space_group_name_H-M   'P 1'
_cell_length_a   8.09471283
_cell_length_b   8.09451676
_cell_length_c   26.54075200
_cell_angle_alpha   85.62693029
_cell_angle_beta   85.62705062
_cell_angle_gamma   59.99922007
_symmetry_Int_Tables_number   1
_chemical_formula_structural   Cu24HCSe12O
_chemical_formula_sum   'Cu24 H1 Se12 C1 O1'
_cell_volume   1500.17856456
_cell_formula_units_Z   1
loop_
 _symmetry_equiv_pos_site_id
 _symmetry_equiv_pos_as_xyz
  1  'x, y, z'
loop_
 _atom_site_type_symbol
 _atom_site_label
 _atom_site_symmetry_multiplicity
 _atom_site_fract_x
 _atom_site_fract_y
 _atom_site_fract_z
 _atom_site_occupancy
  Cu  Cu0  1  0.26562200  0.26563000  0.40625100  1
  Cu  Cu1  1  0.26843992  0.76405974  0.40732752  1
  Cu  Cu2  1  0.76520994  0.26796027  0.40656826  1
  Cu  Cu3  1  0.76507488  0.76348023  0.40721859  1
  Cu  Cu4  1  0.10937300  0.10937800  0.34374900  1
  Cu  Cu5  1  0.10937400  0.60937800  0.34374900  1
  Cu  Cu6  1  0.60937400  0.10937800  0.34374900  1
  Cu  Cu7  1  0.60937400  0.60937800  0.34374900  1
  Cu  Cu8  1  0.07756986  0.07273385  0.55152642  1
  Cu  Cu9  1  0.07934248  0.56561482  0.55243348  1
  Cu  Cu10  1  0.58255754  0.07008659  0.55308056  1
  Cu  Cu11  1  0.57774167  0.57623159  0.53092755  1
  Cu  Cu12  1  0.42378488  0.42616142  0.46879953  1
  Cu  Cu13  1  0.42240493  0.91444618  0.46897075  1
  Cu  Cu14  1  0.91006907  0.42653034  0.46922148  1
  Cu  Cu15  1  0.92273479  0.91922061  0.46388011  1
  Cu  Cu16  1  0.38983221  0.39024104  0.62416456  1
  Cu  Cu17  1  0.39250284  0.89972393  0.62523138  1
  Cu  Cu18  1  0.91221089  0.38823135  0.62469266  1
  Cu  Cu19  1  0.89124190  0.90122965  0.61700481  1
  Cu  Cu20  1  0.24242063  0.22614822  0.58998002  1
  Cu  Cu21  1  0.24322773  0.72850217  0.59078272  1
  Cu  Cu22  1  0.73176396  0.24885012  0.58963488  1
  Cu  Cu23  1  0.73250296  0.72450580  0.59048286  1
  Se  Se24  1  0.43749700  0.43750300  0.37500000  1
  Se  Se25  1  0.43749700  0.93750300  0.37500000  1
  Se  Se26  1  0.93749700  0.43750300  0.37500000  1
  Se  Se27  1  0.93749700  0.93750300  0.37500000  1
  Se  Se28  1  0.24332663  0.25370311  0.50026231  1
  Se  Se29  1  0.23606571  0.75579565  0.50091166  1
  Se  Se30  1  0.75177184  0.23682024  0.50009271  1
  Se  Se31  1  0.74966238  0.75857910  0.50073477  1
  Se  Se32  1  0.05633410  0.05562820  0.64582477  1
  Se  Se33  1  0.05454386  0.56747278  0.64636150  1
  Se  Se34  1  0.55717137  0.05774497  0.64683878  1
  Se  Se35  1  0.56375264  0.55688249  0.63247564  1
  C  C36  1  0.63332510  0.54422027  0.77570566  1
  H  H37  1  0.61618346  0.53657918  0.81811310  1
  O  O38  1  0.50971082  0.59192774  0.74715396  1
