# generated using pymatgen
data_Cu24HCSe12O
_symmetry_space_group_name_H-M   'P 1'
_cell_length_a   8.09471283
_cell_length_b   8.09451676
_cell_length_c   26.54075200
_cell_angle_alpha   85.62693029
_cell_angle_beta   85.62705062
_cell_angle_gamma   59.99922007
_symmetry_Int_Tables_number   1
_chemical_formula_structural   Cu24HCSe12O
_chemical_formula_sum   'Cu24 H1 Se12 C1 O1'
_cell_volume   1500.17856456
_cell_formula_units_Z   1
loop_
 _symmetry_equiv_pos_site_id
 _symmetry_equiv_pos_as_xyz
  1  'x, y, z'
loop_
 _atom_site_type_symbol
 _atom_site_label
 _atom_site_symmetry_multiplicity
 _atom_site_fract_x
 _atom_site_fract_y
 _atom_site_fract_z
 _atom_site_occupancy
  Cu  Cu0  1  0.26562200  0.26563000  0.40625100  1
  Cu  Cu1  1  0.25966544  0.76438623  0.41303359  1
  Cu  Cu2  1  0.75697857  0.24640646  0.41287834  1
  Cu  Cu3  1  0.77162992  0.76057498  0.40141653  1
  Cu  Cu4  1  0.10937300  0.10937800  0.34374900  1
  Cu  Cu5  1  0.10937400  0.60937800  0.34374900  1
  Cu  Cu6  1  0.60937400  0.10937800  0.34374900  1
  Cu  Cu7  1  0.60937400  0.60937800  0.34374900  1
  Cu  Cu8  1  0.26599021  0.00258004  0.55956986  1
  Cu  Cu9  1  0.94818685  0.69636073  0.56292264  1
  Cu  Cu10  1  0.58725496  0.05178724  0.55688175  1
  Cu  Cu11  1  0.57009276  0.45641356  0.56148814  1
  Cu  Cu12  1  0.47880621  0.48036729  0.47135682  1
  Cu  Cu13  1  0.36111900  0.96709948  0.46802077  1
  Cu  Cu14  1  0.99999708  0.44219941  0.50503294  1
  Cu  Cu15  1  0.87989432  0.96742463  0.49298010  1
  Cu  Cu16  1  0.53668070  0.24751968  0.63163896  1
  Cu  Cu17  1  0.39333024  0.04082847  0.63668405  1
  Cu  Cu18  1  0.88212408  0.39965241  0.61303361  1
  Cu  Cu19  1  0.78068397  0.88970749  0.63625475  1
  Cu  Cu20  1  0.22927910  0.34230303  0.57885987  1
  Cu  Cu21  1  0.22029094  0.72014679  0.60203699  1
  Cu  Cu22  1  0.85397383  0.11525586  0.57857405  1
  Cu  Cu23  1  0.61370185  0.73839031  0.58574966  1
  Se  Se24  1  0.43749700  0.43750300  0.37500000  1
  Se  Se25  1  0.43749700  0.93750300  0.37500000  1
  Se  Se26  1  0.93749700  0.43750300  0.37500000  1
  Se  Se27  1  0.93749700  0.93750300  0.37500000  1
  Se  Se28  1  0.33773010  0.26081268  0.49406119  1
  Se  Se29  1  0.23166220  0.77384530  0.50559529  1
  Se  Se30  1  0.81187561  0.29036178  0.49640098  1
  Se  Se31  1  0.73722490  0.76771077  0.49434162  1
  Se  Se32  1  0.08319060  0.05094541  0.63938998  1
  Se  Se33  1  0.05381174  0.55230685  0.64482606  1
  Se  Se34  1  0.44926049  0.11696580  0.71893907  1
  Se  Se35  1  0.53907194  0.54460704  0.64606051  1
  C  C36  1  0.71348957  0.97249759  0.70404344  1
  H  H37  1  0.95794365  0.86763630  0.73025533  1
  O  O38  1  0.82289924  0.94227069  0.74266347  1
