# generated using pymatgen
data_Cu27H
_symmetry_space_group_name_H-M   'P 1'
_cell_length_a   7.56931204
_cell_length_b   6.17958932
_cell_length_c   26.20755800
_cell_angle_alpha   89.93253853
_cell_angle_beta   90.00615399
_cell_angle_gamma   90.00637696
_symmetry_Int_Tables_number   1
_chemical_formula_structural   Cu27H
_chemical_formula_sum   'Cu27 H1'
_cell_volume   1225.86394768
_cell_formula_units_Z   1
loop_
 _symmetry_equiv_pos_site_id
 _symmetry_equiv_pos_as_xyz
  1  'x, y, z'
loop_
 _atom_site_type_symbol
 _atom_site_label
 _atom_site_symmetry_multiplicity
 _atom_site_fract_x
 _atom_site_fract_y
 _atom_site_fract_z
 _atom_site_occupancy
  Cu  Cu0  1  0.00000100  0.70833300  0.43055600  1
  Cu  Cu1  1  0.33333400  0.70833300  0.43055600  1
  Cu  Cu2  1  0.66666700  0.70833300  0.43055600  1
  Cu  Cu3  1  0.00000100  0.04166600  0.48611100  1
  Cu  Cu4  1  0.33333400  0.04166600  0.48611100  1
  Cu  Cu5  1  0.66666700  0.04166600  0.48611100  1
  Cu  Cu6  1  0.00001133  0.37216740  0.54268241  1
  Cu  Cu7  1  0.33425208  0.37152265  0.54365895  1
  Cu  Cu8  1  0.66577229  0.37151910  0.54365672  1
  Cu  Cu9  1  0.16666700  0.37500000  0.45833300  1
  Cu  Cu10  1  0.50000000  0.37500000  0.45833300  1
  Cu  Cu11  1  0.83333400  0.37500000  0.45833300  1
  Cu  Cu12  1  0.16671006  0.70847681  0.51383648  1
  Cu  Cu13  1  0.50000728  0.70709206  0.51353956  1
  Cu  Cu14  1  0.83330988  0.70847516  0.51383587  1
  Cu  Cu15  1  0.00002636  0.70196842  0.60017184  1
  Cu  Cu16  1  0.33394218  0.70101443  0.60026771  1
  Cu  Cu17  1  0.66610877  0.70100980  0.60026373  1
  Cu  Cu18  1  0.00001829  0.03962597  0.65150975  1
  Cu  Cu19  1  0.33224251  0.04119466  0.65210124  1
  Cu  Cu20  1  0.66779922  0.04118773  0.65209983  1
  Cu  Cu21  1  0.16810916  0.03368261  0.57057384  1
  Cu  Cu22  1  0.50000994  0.03067858  0.56938635  1
  Cu  Cu23  1  0.83191438  0.03368026  0.57057298  1
  Cu  Cu24  1  0.16475255  0.37354018  0.62718050  1
  Cu  Cu25  1  0.50002940  0.37472619  0.62980579  1
  Cu  Cu26  1  0.83529849  0.37353977  0.62717976  1
  H  H27  1  0.50004632  0.18211017  0.68074999  1
