# generated using pymatgen
data_Cu24HC(Se6O)2
_symmetry_space_group_name_H-M   'P 1'
_cell_length_a   8.09471283
_cell_length_b   8.09451676
_cell_length_c   26.54075200
_cell_angle_alpha   85.62693029
_cell_angle_beta   85.62705062
_cell_angle_gamma   59.99922007
_symmetry_Int_Tables_number   1
_chemical_formula_structural   Cu24HC(Se6O)2
_chemical_formula_sum   'Cu24 H1 Se12 C1 O2'
_cell_volume   1500.17856456
_cell_formula_units_Z   1
loop_
 _symmetry_equiv_pos_site_id
 _symmetry_equiv_pos_as_xyz
  1  'x, y, z'
loop_
 _atom_site_type_symbol
 _atom_site_label
 _atom_site_symmetry_multiplicity
 _atom_site_fract_x
 _atom_site_fract_y
 _atom_site_fract_z
 _atom_site_occupancy
  Cu  Cu0  1  0.26562200  0.26563000  0.40625100  1
  Cu  Cu1  1  0.26593235  0.76576618  0.40517759  1
  Cu  Cu2  1  0.75987512  0.26415173  0.40682446  1
  Cu  Cu3  1  0.76380476  0.76117118  0.40741739  1
  Cu  Cu4  1  0.10937300  0.10937800  0.34374900  1
  Cu  Cu5  1  0.10937400  0.60937800  0.34374900  1
  Cu  Cu6  1  0.60937400  0.10937800  0.34374900  1
  Cu  Cu7  1  0.60937400  0.60937800  0.34374900  1
  Cu  Cu8  1  0.08485001  0.02195920  0.55190702  1
  Cu  Cu9  1  0.03831307  0.55961717  0.55018049  1
  Cu  Cu10  1  0.56498899  0.11794693  0.54971835  1
  Cu  Cu11  1  0.57887397  0.59191496  0.53833592  1
  Cu  Cu12  1  0.46507558  0.40034786  0.47222785  1
  Cu  Cu13  1  0.40492436  0.92617607  0.46984122  1
  Cu  Cu14  1  0.93379536  0.45970188  0.47087669  1
  Cu  Cu15  1  0.92644592  0.93847585  0.46623057  1
  Cu  Cu16  1  0.40848937  0.34860327  0.62256133  1
  Cu  Cu17  1  0.36869282  0.88553399  0.62175144  1
  Cu  Cu18  1  0.88971250  0.43516196  0.62306332  1
  Cu  Cu19  1  0.90238590  0.90480518  0.61836133  1
  Cu  Cu20  1  0.21893501  0.21616384  0.58706043  1
  Cu  Cu21  1  0.24679551  0.68274978  0.58676751  1
  Cu  Cu22  1  0.74625182  0.25057830  0.58901442  1
  Cu  Cu23  1  0.70347397  0.76964629  0.58849956  1
  Se  Se24  1  0.43749700  0.43750300  0.37500000  1
  Se  Se25  1  0.43749700  0.93750300  0.37500000  1
  Se  Se26  1  0.93749700  0.43750300  0.37500000  1
  Se  Se27  1  0.93749700  0.93750300  0.37500000  1
  Se  Se28  1  0.26860265  0.25809555  0.49911535  1
  Se  Se29  1  0.25321710  0.74187823  0.49801714  1
  Se  Se30  1  0.79120478  0.25905543  0.49904713  1
  Se  Se31  1  0.74234223  0.78629870  0.49946091  1
  Se  Se32  1  0.04111081  0.09205610  0.64435267  1
  Se  Se33  1  0.07750765  0.56462936  0.64469618  1
  Se  Se34  1  0.56746946  0.02408330  0.64600066  1
  Se  Se35  1  0.55439698  0.54906677  0.63496944  1
  C  C36  1  0.54553709  0.54768889  0.81162239  1
  O  O37  1  0.59555710  0.39971285  0.84042418  1
  O  O38  1  0.58719235  0.55102498  0.76493316  1
  H  H39  1  0.45569729  0.68934052  0.82919210  1
