# generated using pymatgen
data_Cu24HCSe12O
_symmetry_space_group_name_H-M   'P 1'
_cell_length_a   8.09471283
_cell_length_b   8.09451676
_cell_length_c   26.54075200
_cell_angle_alpha   85.62693029
_cell_angle_beta   85.62705062
_cell_angle_gamma   59.99922007
_symmetry_Int_Tables_number   1
_chemical_formula_structural   Cu24HCSe12O
_chemical_formula_sum   'Cu24 H1 Se12 C1 O1'
_cell_volume   1500.17856456
_cell_formula_units_Z   1
loop_
 _symmetry_equiv_pos_site_id
 _symmetry_equiv_pos_as_xyz
  1  'x, y, z'
loop_
 _atom_site_type_symbol
 _atom_site_label
 _atom_site_symmetry_multiplicity
 _atom_site_fract_x
 _atom_site_fract_y
 _atom_site_fract_z
 _atom_site_occupancy
  Cu  Cu0  1  0.26562200  0.26563000  0.40625100  1
  Cu  Cu1  1  0.24722699  0.75618276  0.41213612  1
  Cu  Cu2  1  0.75267720  0.25697218  0.41083644  1
  Cu  Cu3  1  0.75231456  0.75074780  0.41148413  1
  Cu  Cu4  1  0.10937300  0.10937800  0.34374900  1
  Cu  Cu5  1  0.10937400  0.60937800  0.34374900  1
  Cu  Cu6  1  0.60937400  0.10937800  0.34374900  1
  Cu  Cu7  1  0.60937400  0.60937800  0.34374900  1
  Cu  Cu8  1  0.02589461  0.07526413  0.55592815  1
  Cu  Cu9  1  0.07140910  0.52188329  0.55141771  1
  Cu  Cu10  1  0.57676150  0.03121465  0.55006067  1
  Cu  Cu11  1  0.53483772  0.58912141  0.55057000  1
  Cu  Cu12  1  0.46489839  0.48064362  0.46999484  1
  Cu  Cu13  1  0.46908635  0.96714160  0.46796878  1
  Cu  Cu14  1  0.98477174  0.45498135  0.46700421  1
  Cu  Cu15  1  0.95283021  0.97999101  0.47110649  1
  Cu  Cu16  1  0.35733279  0.40863489  0.63095823  1
  Cu  Cu17  1  0.40806463  0.85588293  0.61704252  1
  Cu  Cu18  1  0.91328553  0.36281104  0.61794872  1
  Cu  Cu19  1  0.86688056  0.92955413  0.62175086  1
  Cu  Cu20  1  0.24607550  0.19243367  0.58481817  1
  Cu  Cu21  1  0.19561989  0.72543746  0.58302852  1
  Cu  Cu22  1  0.67651433  0.25344514  0.58303037  1
  Cu  Cu23  1  0.74256745  0.70246650  0.58507085  1
  Se  Se24  1  0.43749700  0.43750300  0.37500000  1
  Se  Se25  1  0.43749700  0.93750300  0.37500000  1
  Se  Se26  1  0.93749700  0.43750300  0.37500000  1
  Se  Se27  1  0.93749700  0.93750300  0.37500000  1
  Se  Se28  1  0.31475648  0.29280129  0.49730089  1
  Se  Se29  1  0.28428197  0.81658604  0.49846722  1
  Se  Se30  1  0.79471209  0.31138421  0.49834119  1
  Se  Se31  1  0.81129505  0.78741586  0.49712177  1
  Se  Se32  1  0.08201667  0.03562468  0.64601612  1
  Se  Se33  1  0.02246845  0.58895022  0.64145799  1
  Se  Se34  1  0.53392009  0.06962404  0.64116673  1
  Se  Se35  1  0.57865894  0.52759112  0.64150638  1
  C  C36  1  0.40058167  0.51779537  0.73704675  1
  H  H37  1  0.54943403  0.55324231  0.78440504  1
  O  O38  1  0.54425596  0.45457245  0.76471008  1
