# generated using pymatgen
data_Cu24HCSe12O
_symmetry_space_group_name_H-M   'P 1'
_cell_length_a   8.09471283
_cell_length_b   8.09451676
_cell_length_c   26.54075200
_cell_angle_alpha   85.62693029
_cell_angle_beta   85.62705062
_cell_angle_gamma   59.99922007
_symmetry_Int_Tables_number   1
_chemical_formula_structural   Cu24HCSe12O
_chemical_formula_sum   'Cu24 H1 Se12 C1 O1'
_cell_volume   1500.17856456
_cell_formula_units_Z   1
loop_
 _symmetry_equiv_pos_site_id
 _symmetry_equiv_pos_as_xyz
  1  'x, y, z'
loop_
 _atom_site_type_symbol
 _atom_site_label
 _atom_site_symmetry_multiplicity
 _atom_site_fract_x
 _atom_site_fract_y
 _atom_site_fract_z
 _atom_site_occupancy
  Cu  Cu0  1  0.26562200  0.26563000  0.40625100  1
  Cu  Cu1  1  0.25504210  0.76245200  0.41409559  1
  Cu  Cu2  1  0.76912592  0.25803358  0.40794527  1
  Cu  Cu3  1  0.76790907  0.76322223  0.40144799  1
  Cu  Cu4  1  0.10937300  0.10937800  0.34374900  1
  Cu  Cu5  1  0.10937400  0.60937800  0.34374900  1
  Cu  Cu6  1  0.60937400  0.10937800  0.34374900  1
  Cu  Cu7  1  0.60937400  0.60937800  0.34374900  1
  Cu  Cu8  1  0.01988867  0.16481542  0.53861009  1
  Cu  Cu9  1  0.08998674  0.55185438  0.54946576  1
  Cu  Cu10  1  0.55367624  0.15763541  0.53933773  1
  Cu  Cu11  1  0.62641552  0.61906796  0.54734204  1
  Cu  Cu12  1  0.33544352  0.42774182  0.47406313  1
  Cu  Cu13  1  0.49970753  0.80235750  0.46555711  1
  Cu  Cu14  1  0.00731115  0.43712472  0.47422862  1
  Cu  Cu15  1  0.96272630  0.98127976  0.47324646  1
  Cu  Cu16  1  0.39018067  0.40988941  0.60921755  1
  Cu  Cu17  1  0.41156908  0.86504427  0.61392863  1
  Cu  Cu18  1  0.89547838  0.41961782  0.60827052  1
  Cu  Cu19  1  0.88143584  0.89593395  0.67024520  1
  Cu  Cu20  1  0.24786118  0.21371043  0.58576561  1
  Cu  Cu21  1  0.08966532  0.83548868  0.58680215  1
  Cu  Cu22  1  0.76851958  0.16408748  0.59970038  1
  Cu  Cu23  1  0.76500092  0.81346269  0.58711951  1
  Se  Se24  1  0.43749700  0.43750300  0.37500000  1
  Se  Se25  1  0.43749700  0.93750300  0.37500000  1
  Se  Se26  1  0.93749700  0.43750300  0.37500000  1
  Se  Se27  1  0.93749700  0.93750300  0.37500000  1
  Se  Se28  1  0.30913222  0.14030521  0.49415387  1
  Se  Se29  1  0.26461203  0.72698885  0.50561233  1
  Se  Se30  1  0.72281314  0.30477945  0.49763814  1
  Se  Se31  1  0.79700707  0.76407715  0.49562614  1
  Se  Se32  1  0.07434819  0.07268117  0.63905788  1
  Se  Se33  1  0.05996889  0.57036210  0.64112258  1
  Se  Se34  1  0.54054362  0.06657138  0.63992717  1
  Se  Se35  1  0.57017744  0.54033942  0.63569127  1
  C  C36  1  0.87758135  0.88650055  0.74273471  1
  H  H37  1  0.78923272  0.82837493  0.76418246  1
  O  O38  1  0.96351162  0.93352105  0.77058155  1
