# generated using pymatgen
data_Cu24HSe12
_symmetry_space_group_name_H-M   'P 1'
_cell_length_a   8.09471283
_cell_length_b   8.09451676
_cell_length_c   26.54075200
_cell_angle_alpha   85.62693029
_cell_angle_beta   85.62705062
_cell_angle_gamma   59.99922007
_symmetry_Int_Tables_number   1
_chemical_formula_structural   Cu24HSe12
_chemical_formula_sum   'Cu24 H1 Se12'
_cell_volume   1500.17856456
_cell_formula_units_Z   1
loop_
 _symmetry_equiv_pos_site_id
 _symmetry_equiv_pos_as_xyz
  1  'x, y, z'
loop_
 _atom_site_type_symbol
 _atom_site_label
 _atom_site_symmetry_multiplicity
 _atom_site_fract_x
 _atom_site_fract_y
 _atom_site_fract_z
 _atom_site_occupancy
  Cu  Cu0  1  0.26562200  0.26563000  0.40625100  1
  Cu  Cu1  1  0.26878630  0.76235812  0.41266068  1
  Cu  Cu2  1  0.76232157  0.26884837  0.41267365  1
  Cu  Cu3  1  0.76297858  0.76298429  0.41237339  1
  Cu  Cu4  1  0.10937300  0.10937800  0.34374900  1
  Cu  Cu5  1  0.10937400  0.60937800  0.34374900  1
  Cu  Cu6  1  0.60937400  0.10937800  0.34374900  1
  Cu  Cu7  1  0.60937400  0.60937800  0.34374900  1
  Cu  Cu8  1  0.08796559  0.08819806  0.54577463  1
  Cu  Cu9  1  0.09113742  0.54821177  0.54527204  1
  Cu  Cu10  1  0.54831194  0.09107552  0.54529645  1
  Cu  Cu11  1  0.57848289  0.57873568  0.54061436  1
  Cu  Cu12  1  0.42923138  0.42941719  0.47202203  1
  Cu  Cu13  1  0.43448117  0.89799596  0.47174430  1
  Cu  Cu14  1  0.89830907  0.43432773  0.47175810  1
  Cu  Cu15  1  0.92474905  0.92501854  0.46381634  1
  Cu  Cu16  1  0.40817158  0.40819056  0.60565241  1
  Cu  Cu17  1  0.40876152  0.88003539  0.60571606  1
  Cu  Cu18  1  0.88006463  0.40876637  0.60571042  1
  Cu  Cu19  1  0.88750357  0.88747759  0.67319801  1
  Cu  Cu20  1  0.23373307  0.23370047  0.59562655  1
  Cu  Cu21  1  0.13159229  0.78461387  0.59652957  1
  Cu  Cu22  1  0.78459315  0.13162226  0.59654413  1
  Cu  Cu23  1  0.78558687  0.78552860  0.59618640  1
  Se  Se24  1  0.43749700  0.43750300  0.37500000  1
  Se  Se25  1  0.43749700  0.93750300  0.37500000  1
  Se  Se26  1  0.93749700  0.43750300  0.37500000  1
  Se  Se27  1  0.93749700  0.93750300  0.37500000  1
  Se  Se28  1  0.24888640  0.24865626  0.49679449  1
  Se  Se29  1  0.23682749  0.75504705  0.50442434  1
  Se  Se30  1  0.75488773  0.23705031  0.50443427  1
  Se  Se31  1  0.75812051  0.75804568  0.50417974  1
  Se  Se32  1  0.06620398  0.06617349  0.64192230  1
  Se  Se33  1  0.06613481  0.54592155  0.64184542  1
  Se  Se34  1  0.54594888  0.06608984  0.64184838  1
  Se  Se35  1  0.56054461  0.56049766  0.63489958  1
  H  H36  1  0.87791518  0.87792234  0.73122704  1
