# generated using pymatgen
data_Mo12HSe24
_symmetry_space_group_name_H-M   'P 1'
_cell_length_a   6.57932100
_cell_length_b   13.15865201
_cell_length_c   25.69278231
_cell_angle_alpha   90.00141744
_cell_angle_beta   86.32845510
_cell_angle_gamma   89.99834975
_symmetry_Int_Tables_number   1
_chemical_formula_structural   Mo12HSe24
_chemical_formula_sum   'Mo12 H1 Se24'
_cell_volume   2219.78712514
_cell_formula_units_Z   1
loop_
 _symmetry_equiv_pos_site_id
 _symmetry_equiv_pos_as_xyz
  1  'x, y, z'
loop_
 _atom_site_type_symbol
 _atom_site_label
 _atom_site_symmetry_multiplicity
 _atom_site_fract_x
 _atom_site_fract_y
 _atom_site_fract_z
 _atom_site_occupancy
  Mo  Mo0  1  0.40730700  0.75010700  0.37035000  1
  Mo  Mo1  1  0.90730700  0.75010700  0.37035000  1
  Mo  Mo2  1  0.14824900  0.24988800  0.40742800  1
  Mo  Mo3  1  0.64824900  0.24988800  0.40742800  1
  Mo  Mo4  1  0.12855920  0.75007452  0.48140072  1
  Mo  Mo5  1  0.63007915  0.75007287  0.48140080  1
  Mo  Mo6  1  0.36983636  0.24997034  0.52271926  1
  Mo  Mo7  1  0.87000284  0.24997375  0.52224977  1
  Mo  Mo8  1  0.35138852  0.75002683  0.59421436  1
  Mo  Mo9  1  0.85142116  0.75003972  0.59411378  1
  Mo  Mo10  1  0.14009138  0.25000719  0.62344801  1
  Mo  Mo11  1  0.54975320  0.25001148  0.62348855  1
  Se  Se12  1  0.14805500  0.62304600  0.40738500  1
  Se  Se13  1  0.64805500  0.62304600  0.40738500  1
  Se  Se14  1  0.40751700  0.12282800  0.37038900  1
  Se  Se15  1  0.90751700  0.12282800  0.37038900  1
  Se  Se16  1  0.14804000  0.87717700  0.40738900  1
  Se  Se17  1  0.64804000  0.87717700  0.40738900  1
  Se  Se18  1  0.40750200  0.37696000  0.37039300  1
  Se  Se19  1  0.90750200  0.37696000  0.37039300  1
  Se  Se20  1  0.36988187  0.62402692  0.51936240  1
  Se  Se21  1  0.86978499  0.62328849  0.51975619  1
  Se  Se22  1  0.12645720  0.12496272  0.48304164  1
  Se  Se23  1  0.63288476  0.12498052  0.48304204  1
  Se  Se24  1  0.36986119  0.87608285  0.51938590  1
  Se  Se25  1  0.86976228  0.87682478  0.51977371  1
  Se  Se26  1  0.12645525  0.37493307  0.48300167  1
  Se  Se27  1  0.63287558  0.37491500  0.48300210  1
  Se  Se28  1  0.09198712  0.62633674  0.63373578  1
  Se  Se29  1  0.59102617  0.62634489  0.63374332  1
  Se  Se30  1  0.35328517  0.10563565  0.58979870  1
  Se  Se31  1  0.84994106  0.12719076  0.60291121  1
  Se  Se32  1  0.09197005  0.87371479  0.63375280  1
  Se  Se33  1  0.59100012  0.87370134  0.63376306  1
  Se  Se34  1  0.35326945  0.39435590  0.58976367  1
  Se  Se35  1  0.84993816  0.37281097  0.60287905  1
  H  H36  1  0.33191795  0.25004025  0.67498235  1
