# generated using pymatgen
data_Cu27H
_symmetry_space_group_name_H-M   'P 1'
_cell_length_a   7.56931204
_cell_length_b   6.17958932
_cell_length_c   26.20755800
_cell_angle_alpha   89.93253853
_cell_angle_beta   90.00615399
_cell_angle_gamma   90.00637696
_symmetry_Int_Tables_number   1
_chemical_formula_structural   Cu27H
_chemical_formula_sum   'Cu27 H1'
_cell_volume   1225.86394768
_cell_formula_units_Z   1
loop_
 _symmetry_equiv_pos_site_id
 _symmetry_equiv_pos_as_xyz
  1  'x, y, z'
loop_
 _atom_site_type_symbol
 _atom_site_label
 _atom_site_symmetry_multiplicity
 _atom_site_fract_x
 _atom_site_fract_y
 _atom_site_fract_z
 _atom_site_occupancy
  Cu  Cu0  1  0.00000100  0.70833300  0.43055600  1
  Cu  Cu1  1  0.33333400  0.70833300  0.43055600  1
  Cu  Cu2  1  0.66666700  0.70833300  0.43055600  1
  Cu  Cu3  1  0.00000100  0.04166600  0.48611100  1
  Cu  Cu4  1  0.33333400  0.04166600  0.48611100  1
  Cu  Cu5  1  0.66666700  0.04166600  0.48611100  1
  Cu  Cu6  1  0.00136909  0.37233007  0.54348012  1
  Cu  Cu7  1  0.33336868  0.37225216  0.54304571  1
  Cu  Cu8  1  0.66535591  0.37232620  0.54347965  1
  Cu  Cu9  1  0.16666700  0.37500000  0.45833300  1
  Cu  Cu10  1  0.50000000  0.37500000  0.45833300  1
  Cu  Cu11  1  0.83333400  0.37500000  0.45833300  1
  Cu  Cu12  1  0.16652958  0.70753543  0.51397910  1
  Cu  Cu13  1  0.50016754  0.70753030  0.51397964  1
  Cu  Cu14  1  0.83336221  0.70812960  0.51437989  1
  Cu  Cu15  1  0.00048028  0.70005055  0.60061645  1
  Cu  Cu16  1  0.33337691  0.70269360  0.59995133  1
  Cu  Cu17  1  0.66626356  0.70004523  0.60061315  1
  Cu  Cu18  1  0.99818658  0.03935926  0.65068594  1
  Cu  Cu19  1  0.33335448  0.03697502  0.65053799  1
  Cu  Cu20  1  0.66846239  0.03936233  0.65068434  1
  Cu  Cu21  1  0.16596157  0.03255252  0.56936069  1
  Cu  Cu22  1  0.50072299  0.03254608  0.56935829  1
  Cu  Cu23  1  0.83335412  0.03364778  0.56948956  1
  Cu  Cu24  1  0.16574184  0.37407334  0.62899159  1
  Cu  Cu25  1  0.50097754  0.37407631  0.62898934  1
  Cu  Cu26  1  0.83336353  0.37159950  0.62755744  1
  H  H27  1  0.33335410  0.29861924  0.67167163  1
