# generated using pymatgen
data_Cu24H2CSe12O
_symmetry_space_group_name_H-M   'P 1'
_cell_length_a   8.09471283
_cell_length_b   8.09451676
_cell_length_c   26.54075200
_cell_angle_alpha   85.62693029
_cell_angle_beta   85.62705062
_cell_angle_gamma   59.99922007
_symmetry_Int_Tables_number   1
_chemical_formula_structural   Cu24H2CSe12O
_chemical_formula_sum   'Cu24 H2 Se12 C1 O1'
_cell_volume   1500.17856456
_cell_formula_units_Z   1
loop_
 _symmetry_equiv_pos_site_id
 _symmetry_equiv_pos_as_xyz
  1  'x, y, z'
loop_
 _atom_site_type_symbol
 _atom_site_label
 _atom_site_symmetry_multiplicity
 _atom_site_fract_x
 _atom_site_fract_y
 _atom_site_fract_z
 _atom_site_occupancy
  Cu  Cu0  1  0.26562200  0.26563000  0.40625100  1
  Cu  Cu1  1  0.25451855  0.77807632  0.41412153  1
  Cu  Cu2  1  0.75874007  0.27331649  0.40964257  1
  Cu  Cu3  1  0.76629887  0.76999304  0.41089457  1
  Cu  Cu4  1  0.10937300  0.10937800  0.34374900  1
  Cu  Cu5  1  0.10937400  0.60937800  0.34374900  1
  Cu  Cu6  1  0.60937400  0.10937800  0.34374900  1
  Cu  Cu7  1  0.60937400  0.60937800  0.34374900  1
  Cu  Cu8  1  0.05711936  0.11159788  0.54986561  1
  Cu  Cu9  1  0.08236253  0.57766871  0.53608670  1
  Cu  Cu10  1  0.55843782  0.07311712  0.54035517  1
  Cu  Cu11  1  0.58404661  0.56766506  0.55848516  1
  Cu  Cu12  1  0.42760798  0.39285995  0.46913129  1
  Cu  Cu13  1  0.43304270  0.91248306  0.46646359  1
  Cu  Cu14  1  0.90381548  0.41121922  0.46796068  1
  Cu  Cu15  1  0.95007573  0.88114929  0.47153229  1
  Cu  Cu16  1  0.39992423  0.42698006  0.61739658  1
  Cu  Cu17  1  0.39421829  0.88428139  0.60959348  1
  Cu  Cu18  1  0.87977221  0.39427656  0.61420284  1
  Cu  Cu19  1  0.87256626  0.88568136  0.66035379  1
  Cu  Cu20  1  0.23559810  0.25554171  0.58781121  1
  Cu  Cu21  1  0.14838207  0.78041985  0.59030110  1
  Cu  Cu22  1  0.74260865  0.18525187  0.59444203  1
  Cu  Cu23  1  0.75737025  0.75890781  0.59339931  1
  Se  Se24  1  0.43749700  0.43750300  0.37500000  1
  Se  Se25  1  0.43749700  0.93750300  0.37500000  1
  Se  Se26  1  0.93749700  0.43750300  0.37500000  1
  Se  Se27  1  0.93749700  0.93750300  0.37500000  1
  Se  Se28  1  0.23986172  0.23257578  0.49753632  1
  Se  Se29  1  0.29529385  0.70809599  0.50431053  1
  Se  Se30  1  0.76400667  0.20744078  0.50114783  1
  Se  Se31  1  0.75274644  0.72635296  0.50292593  1
  Se  Se32  1  0.05963152  0.05431683  0.64197298  1
  Se  Se33  1  0.06151683  0.54580410  0.63805213  1
  Se  Se34  1  0.53401980  0.07186260  0.63719880  1
  Se  Se35  1  0.56142321  0.56654062  0.65037865  1
  C  C36  1  0.89132148  0.90946746  0.72943812  1
  O  O37  1  0.76254865  0.05258261  0.75553637  1
  H  H38  1  0.02720490  0.82564866  0.74940689  1
  H  H39  1  0.80894316  0.06337795  0.78827120  1
