# generated using pymatgen
data_Cu24C(Se6O)2
_symmetry_space_group_name_H-M   'P 1'
_cell_length_a   8.09471283
_cell_length_b   8.09451676
_cell_length_c   26.54075200
_cell_angle_alpha   85.62693029
_cell_angle_beta   85.62705062
_cell_angle_gamma   59.99922007
_symmetry_Int_Tables_number   1
_chemical_formula_structural   Cu24C(Se6O)2
_chemical_formula_sum   'Cu24 Se12 C1 O2'
_cell_volume   1500.17856456
_cell_formula_units_Z   1
loop_
 _symmetry_equiv_pos_site_id
 _symmetry_equiv_pos_as_xyz
  1  'x, y, z'
loop_
 _atom_site_type_symbol
 _atom_site_label
 _atom_site_symmetry_multiplicity
 _atom_site_fract_x
 _atom_site_fract_y
 _atom_site_fract_z
 _atom_site_occupancy
  Cu  Cu0  1  0.26562200  0.26563000  0.40625100  1
  Cu  Cu1  1  0.26754357  0.76462815  0.40779659  1
  Cu  Cu2  1  0.76365487  0.26781548  0.40760239  1
  Cu  Cu3  1  0.76432616  0.76373991  0.40799642  1
  Cu  Cu4  1  0.10937300  0.10937800  0.34374900  1
  Cu  Cu5  1  0.10937400  0.60937800  0.34374900  1
  Cu  Cu6  1  0.60937400  0.10937800  0.34374900  1
  Cu  Cu7  1  0.60937400  0.60937800  0.34374900  1
  Cu  Cu8  1  0.05582400  0.08999900  0.55021984  1
  Cu  Cu9  1  0.08308060  0.57709778  0.55084021  1
  Cu  Cu10  1  0.56343304  0.05905414  0.55065206  1
  Cu  Cu11  1  0.57277671  0.56652767  0.53747503  1
  Cu  Cu12  1  0.42104752  0.42616872  0.46924504  1
  Cu  Cu13  1  0.42364704  0.91586982  0.46906791  1
  Cu  Cu14  1  0.91068761  0.42142323  0.46914583  1
  Cu  Cu15  1  0.91989353  0.91579501  0.46495940  1
  Cu  Cu16  1  0.37204064  0.40950933  0.61977353  1
  Cu  Cu17  1  0.40481869  0.90711634  0.62297961  1
  Cu  Cu18  1  0.89601300  0.37449405  0.62130293  1
  Cu  Cu19  1  0.89571327  0.88947432  0.62000697  1
  Cu  Cu20  1  0.22634644  0.23686548  0.58942756  1
  Cu  Cu21  1  0.23711787  0.75015458  0.59025940  1
  Cu  Cu22  1  0.71391071  0.23248775  0.59026665  1
  Cu  Cu23  1  0.74072379  0.71564915  0.59056302  1
  Se  Se24  1  0.43749700  0.43750300  0.37500000  1
  Se  Se25  1  0.43749700  0.93750300  0.37500000  1
  Se  Se26  1  0.93749700  0.43750300  0.37500000  1
  Se  Se27  1  0.93749700  0.93750300  0.37500000  1
  Se  Se28  1  0.24799231  0.24999203  0.49973971  1
  Se  Se29  1  0.23929573  0.75358537  0.50059455  1
  Se  Se30  1  0.75397633  0.23652635  0.50041362  1
  Se  Se31  1  0.75039218  0.75108455  0.50097659  1
  Se  Se32  1  0.06902660  0.04285289  0.64517566  1
  Se  Se33  1  0.04152110  0.55392915  0.64543135  1
  Se  Se34  1  0.55897826  0.07375959  0.64553013  1
  Se  Se35  1  0.55492622  0.56232709  0.63388331  1
  C  C36  1  0.55789033  0.55361244  0.75308804  1
  O  O37  1  0.47451557  0.72062363  0.75198277  1
  O  O38  1  0.64191334  0.38593449  0.75404057  1
