# generated using pymatgen
data_Cu24HC(Se6O)2
_symmetry_space_group_name_H-M   'P 1'
_cell_length_a   8.09471283
_cell_length_b   8.09451676
_cell_length_c   26.54075200
_cell_angle_alpha   85.62693029
_cell_angle_beta   85.62705062
_cell_angle_gamma   59.99922007
_symmetry_Int_Tables_number   1
_chemical_formula_structural   Cu24HC(Se6O)2
_chemical_formula_sum   'Cu24 H1 Se12 C1 O2'
_cell_volume   1500.17856456
_cell_formula_units_Z   1
loop_
 _symmetry_equiv_pos_site_id
 _symmetry_equiv_pos_as_xyz
  1  'x, y, z'
loop_
 _atom_site_type_symbol
 _atom_site_label
 _atom_site_symmetry_multiplicity
 _atom_site_fract_x
 _atom_site_fract_y
 _atom_site_fract_z
 _atom_site_occupancy
  Cu  Cu0  1  0.26562200  0.26563000  0.40625100  1
  Cu  Cu1  1  0.26212941  0.76585459  0.41103440  1
  Cu  Cu2  1  0.76627761  0.26246272  0.41140874  1
  Cu  Cu3  1  0.76606313  0.76679641  0.41122792  1
  Cu  Cu4  1  0.10937300  0.10937800  0.34374900  1
  Cu  Cu5  1  0.10937400  0.60937800  0.34374900  1
  Cu  Cu6  1  0.60937400  0.10937800  0.34374900  1
  Cu  Cu7  1  0.60937400  0.60937800  0.34374900  1
  Cu  Cu8  1  0.07846028  0.08452664  0.54146193  1
  Cu  Cu9  1  0.09347715  0.56406262  0.54139889  1
  Cu  Cu10  1  0.55940968  0.07615702  0.54277253  1
  Cu  Cu11  1  0.57823117  0.57008213  0.55055537  1
  Cu  Cu12  1  0.41991651  0.42728857  0.46846454  1
  Cu  Cu13  1  0.43069275  0.92108945  0.46841473  1
  Cu  Cu14  1  0.91413780  0.41650924  0.46869390  1
  Cu  Cu15  1  0.92662063  0.91530740  0.46874251  1
  Cu  Cu16  1  0.41178468  0.40284667  0.60792161  1
  Cu  Cu17  1  0.41439588  0.87503941  0.60826622  1
  Cu  Cu18  1  0.87512877  0.40533544  0.60945016  1
  Cu  Cu19  1  0.89456192  0.87966118  0.66413250  1
  Cu  Cu20  1  0.23249346  0.23298137  0.58987700  1
  Cu  Cu21  1  0.16790205  0.76719111  0.59434769  1
  Cu  Cu22  1  0.77344793  0.15308278  0.59419224  1
  Cu  Cu23  1  0.77657004  0.76683158  0.59351257  1
  Se  Se24  1  0.43749700  0.43750300  0.37500000  1
  Se  Se25  1  0.43749700  0.93750300  0.37500000  1
  Se  Se26  1  0.93749700  0.43750300  0.37500000  1
  Se  Se27  1  0.93749700  0.93750300  0.37500000  1
  Se  Se28  1  0.24748116  0.25247874  0.49698754  1
  Se  Se29  1  0.25610522  0.75152029  0.50246320  1
  Se  Se30  1  0.74451406  0.24590714  0.50286527  1
  Se  Se31  1  0.75339412  0.74134739  0.50272380  1
  Se  Se32  1  0.06903318  0.06338335  0.63793168  1
  Se  Se33  1  0.06867167  0.54221576  0.63789959  1
  Se  Se34  1  0.55120476  0.06147249  0.63896194  1
  Se  Se35  1  0.55690285  0.55731817  0.64330206  1
  C  C36  1  0.88293921  0.88985179  0.73701902  1
  O  O37  1  0.78542755  0.07278742  0.75332552  1
  O  O38  1  0.95215416  0.75712893  0.76997842  1
  H  H39  1  0.78776611  0.06778091  0.79085720  1
