# generated using pymatgen
data_Cu24HCSe12O
_symmetry_space_group_name_H-M   'P 1'
_cell_length_a   8.09471283
_cell_length_b   8.09451676
_cell_length_c   26.54075200
_cell_angle_alpha   85.62693029
_cell_angle_beta   85.62705062
_cell_angle_gamma   59.99922007
_symmetry_Int_Tables_number   1
_chemical_formula_structural   Cu24HCSe12O
_chemical_formula_sum   'Cu24 H1 Se12 C1 O1'
_cell_volume   1500.17856456
_cell_formula_units_Z   1
loop_
 _symmetry_equiv_pos_site_id
 _symmetry_equiv_pos_as_xyz
  1  'x, y, z'
loop_
 _atom_site_type_symbol
 _atom_site_label
 _atom_site_symmetry_multiplicity
 _atom_site_fract_x
 _atom_site_fract_y
 _atom_site_fract_z
 _atom_site_occupancy
  Cu  Cu0  1  0.26562200  0.26563000  0.40625100  1
  Cu  Cu1  1  0.27618930  0.75435180  0.40956277  1
  Cu  Cu2  1  0.75716575  0.28503282  0.40634019  1
  Cu  Cu3  1  0.76289864  0.77305409  0.40331832  1
  Cu  Cu4  1  0.10937300  0.10937800  0.34374900  1
  Cu  Cu5  1  0.10937400  0.60937800  0.34374900  1
  Cu  Cu6  1  0.60937400  0.10937800  0.34374900  1
  Cu  Cu7  1  0.60937400  0.60937800  0.34374900  1
  Cu  Cu8  1  0.01533485  0.10592269  0.55453093  1
  Cu  Cu9  1  0.09444147  0.62078394  0.54817380  1
  Cu  Cu10  1  0.50578805  0.05691192  0.55411850  1
  Cu  Cu11  1  0.57746984  0.58440760  0.54830192  1
  Cu  Cu12  1  0.49091572  0.44189198  0.47933707  1
  Cu  Cu13  1  0.48686777  0.94795354  0.46967643  1
  Cu  Cu14  1  0.98424201  0.30843887  0.47155687  1
  Cu  Cu15  1  0.98312308  0.81027355  0.46566873  1
  Cu  Cu16  1  0.35327634  0.40412798  0.62347463  1
  Cu  Cu17  1  0.42500584  0.89028848  0.62706443  1
  Cu  Cu18  1  0.82228052  0.40113938  0.61562852  1
  Cu  Cu19  1  0.91064793  0.90613894  0.61851558  1
  Cu  Cu20  1  0.16021867  0.28587767  0.58312999  1
  Cu  Cu21  1  0.25413282  0.74596219  0.59716139  1
  Cu  Cu22  1  0.66051669  0.25015768  0.57407517  1
  Cu  Cu23  1  0.75295636  0.73458475  0.58212394  1
  Se  Se24  1  0.43749700  0.43750300  0.37500000  1
  Se  Se25  1  0.43749700  0.93750300  0.37500000  1
  Se  Se26  1  0.93749700  0.43750300  0.37500000  1
  Se  Se27  1  0.93749700  0.93750300  0.37500000  1
  Se  Se28  1  0.28124424  0.28102857  0.49662591  1
  Se  Se29  1  0.27796442  0.76998589  0.50244094  1
  Se  Se30  1  0.79706393  0.15013715  0.49208748  1
  Se  Se31  1  0.79243022  0.66644222  0.49415714  1
  Se  Se32  1  0.07424641  0.07074026  0.64257408  1
  Se  Se33  1  0.01465692  0.56566189  0.64027266  1
  Se  Se34  1  0.57631374  0.06729018  0.64106044  1
  Se  Se35  1  0.51104102  0.56447559  0.66018309  1
  C  C36  1  0.40516913  0.60378071  0.73447315  1
  H  H37  1  0.50928951  0.50706404  0.79912886  1
  O  O38  1  0.54709439  0.49725630  0.76210362  1
