# generated using pymatgen
data_Cu24CSe12O
_symmetry_space_group_name_H-M   'P 1'
_cell_length_a   8.09471283
_cell_length_b   8.09451676
_cell_length_c   26.54075200
_cell_angle_alpha   85.62693029
_cell_angle_beta   85.62705062
_cell_angle_gamma   59.99922007
_symmetry_Int_Tables_number   1
_chemical_formula_structural   Cu24CSe12O
_chemical_formula_sum   'Cu24 Se12 C1 O1'
_cell_volume   1500.17856456
_cell_formula_units_Z   1
loop_
 _symmetry_equiv_pos_site_id
 _symmetry_equiv_pos_as_xyz
  1  'x, y, z'
loop_
 _atom_site_type_symbol
 _atom_site_label
 _atom_site_symmetry_multiplicity
 _atom_site_fract_x
 _atom_site_fract_y
 _atom_site_fract_z
 _atom_site_occupancy
  Cu  Cu0  1  0.26562200  0.26563000  0.40625100  1
  Cu  Cu1  1  0.26108628  0.76625303  0.41077334  1
  Cu  Cu2  1  0.76626224  0.26113165  0.41073436  1
  Cu  Cu3  1  0.76644983  0.76641099  0.41051052  1
  Cu  Cu4  1  0.10937300  0.10937800  0.34374900  1
  Cu  Cu5  1  0.10937400  0.60937800  0.34374900  1
  Cu  Cu6  1  0.60937400  0.10937800  0.34374900  1
  Cu  Cu7  1  0.60937400  0.60937800  0.34374900  1
  Cu  Cu8  1  0.07850847  0.07887262  0.54072530  1
  Cu  Cu9  1  0.08238675  0.56719559  0.54117408  1
  Cu  Cu10  1  0.56732060  0.08246498  0.54116360  1
  Cu  Cu11  1  0.57345344  0.57342241  0.55423137  1
  Cu  Cu12  1  0.42214104  0.42230911  0.46737154  1
  Cu  Cu13  1  0.42449491  0.92044276  0.46719823  1
  Cu  Cu14  1  0.92037304  0.42460502  0.46721769  1
  Cu  Cu15  1  0.92254466  0.92248181  0.46965243  1
  Cu  Cu16  1  0.40731410  0.40778414  0.61053956  1
  Cu  Cu17  1  0.41120999  0.87411944  0.61127329  1
  Cu  Cu18  1  0.87443023  0.41127037  0.61117240  1
  Cu  Cu19  1  0.89020560  0.89116426  0.66004253  1
  Cu  Cu20  1  0.23359950  0.23334825  0.58845521  1
  Cu  Cu21  1  0.17492791  0.76378240  0.59377263  1
  Cu  Cu22  1  0.76328398  0.17571682  0.59378080  1
  Cu  Cu23  1  0.76586551  0.76600177  0.59335992  1
  Se  Se24  1  0.43749700  0.43750300  0.37500000  1
  Se  Se25  1  0.43749700  0.93750300  0.37500000  1
  Se  Se26  1  0.93749700  0.43750300  0.37500000  1
  Se  Se27  1  0.93749700  0.93750300  0.37500000  1
  Se  Se28  1  0.25004671  0.25010439  0.49792109  1
  Se  Se29  1  0.25738355  0.74641904  0.50283660  1
  Se  Se30  1  0.74635435  0.25735441  0.50279717  1
  Se  Se31  1  0.74751679  0.74767539  0.50277633  1
  Se  Se32  1  0.06834946  0.06841370  0.63826698  1
  Se  Se33  1  0.06648039  0.54613950  0.63874388  1
  Se  Se34  1  0.54580650  0.06670358  0.63874569  1
  Se  Se35  1  0.55722431  0.55683640  0.64738772  1
  O  O36  1  0.88107288  0.87029842  0.77299344  1
  C  C37  1  0.88323523  0.87910337  0.72946255  1
