# generated using pymatgen
data_Cu24H2CSe12O
_symmetry_space_group_name_H-M   'P 1'
_cell_length_a   8.09471283
_cell_length_b   8.09451676
_cell_length_c   26.54075200
_cell_angle_alpha   85.62693029
_cell_angle_beta   85.62705062
_cell_angle_gamma   59.99922007
_symmetry_Int_Tables_number   1
_chemical_formula_structural   Cu24H2CSe12O
_chemical_formula_sum   'Cu24 H2 Se12 C1 O1'
_cell_volume   1500.17856456
_cell_formula_units_Z   1
loop_
 _symmetry_equiv_pos_site_id
 _symmetry_equiv_pos_as_xyz
  1  'x, y, z'
loop_
 _atom_site_type_symbol
 _atom_site_label
 _atom_site_symmetry_multiplicity
 _atom_site_fract_x
 _atom_site_fract_y
 _atom_site_fract_z
 _atom_site_occupancy
  Cu  Cu0  1  0.26562200  0.26563000  0.40625100  1
  Cu  Cu1  1  0.26463249  0.76610595  0.40751888  1
  Cu  Cu2  1  0.76615148  0.26409605  0.40787462  1
  Cu  Cu3  1  0.76573449  0.76594885  0.40744017  1
  Cu  Cu4  1  0.10937300  0.10937800  0.34374900  1
  Cu  Cu5  1  0.10937400  0.60937800  0.34374900  1
  Cu  Cu6  1  0.60937400  0.10937800  0.34374900  1
  Cu  Cu7  1  0.60937400  0.60937800  0.34374900  1
  Cu  Cu8  1  0.07528941  0.07056674  0.54492337  1
  Cu  Cu9  1  0.07733057  0.57941457  0.54690596  1
  Cu  Cu10  1  0.56798948  0.07735783  0.54576948  1
  Cu  Cu11  1  0.58429435  0.57028885  0.54986976  1
  Cu  Cu12  1  0.42236389  0.41986795  0.46765122  1
  Cu  Cu13  1  0.42114326  0.92528281  0.46851182  1
  Cu  Cu14  1  0.92259330  0.42048876  0.46799533  1
  Cu  Cu15  1  0.92385041  0.92162415  0.46981336  1
  Cu  Cu16  1  0.39605032  0.39512420  0.61815078  1
  Cu  Cu17  1  0.40072236  0.89741233  0.61849662  1
  Cu  Cu18  1  0.88433756  0.40311383  0.61917486  1
  Cu  Cu19  1  0.90674736  0.89058006  0.62012541  1
  Cu  Cu20  1  0.22617800  0.23791882  0.58954505  1
  Cu  Cu21  1  0.24128593  0.73332760  0.58999010  1
  Cu  Cu22  1  0.73673088  0.22660099  0.59033793  1
  Cu  Cu23  1  0.73842558  0.73947197  0.58984406  1
  Se  Se24  1  0.43749700  0.43750300  0.37500000  1
  Se  Se25  1  0.43749700  0.93750300  0.37500000  1
  Se  Se26  1  0.93749700  0.43750300  0.37500000  1
  Se  Se27  1  0.93749700  0.93750300  0.37500000  1
  Se  Se28  1  0.24910080  0.25236817  0.49938227  1
  Se  Se29  1  0.25396750  0.74745370  0.49999698  1
  Se  Se30  1  0.74811346  0.25304642  0.50031140  1
  Se  Se31  1  0.74983912  0.74837301  0.49994495  1
  Se  Se32  1  0.06207160  0.06464824  0.63995775  1
  Se  Se33  1  0.05930909  0.55417845  0.64178367  1
  Se  Se34  1  0.56407501  0.05883462  0.64029153  1
  Se  Se35  1  0.55036941  0.56302913  0.64437207  1
  C  C36  1  0.88175490  0.88525544  0.76919000  1
  O  O37  1  0.86520776  0.91203024  0.72359831  1
  H  H38  1  0.95771828  0.73871079  0.78701734  1
  H  H39  1  0.82094610  0.00731897  0.79457990  1
