# generated using pymatgen
data_Cu24HCSe12O
_symmetry_space_group_name_H-M   'P 1'
_cell_length_a   8.09471283
_cell_length_b   8.09451676
_cell_length_c   26.54075200
_cell_angle_alpha   85.62693029
_cell_angle_beta   85.62705062
_cell_angle_gamma   59.99922007
_symmetry_Int_Tables_number   1
_chemical_formula_structural   Cu24HCSe12O
_chemical_formula_sum   'Cu24 H1 Se12 C1 O1'
_cell_volume   1500.17856456
_cell_formula_units_Z   1
loop_
 _symmetry_equiv_pos_site_id
 _symmetry_equiv_pos_as_xyz
  1  'x, y, z'
loop_
 _atom_site_type_symbol
 _atom_site_label
 _atom_site_symmetry_multiplicity
 _atom_site_fract_x
 _atom_site_fract_y
 _atom_site_fract_z
 _atom_site_occupancy
  Cu  Cu0  1  0.26562200  0.26563000  0.40625100  1
  Cu  Cu1  1  0.26909983  0.76215712  0.40532782  1
  Cu  Cu2  1  0.76150504  0.26812395  0.40926602  1
  Cu  Cu3  1  0.76873493  0.76559173  0.40173176  1
  Cu  Cu4  1  0.10937300  0.10937800  0.34374900  1
  Cu  Cu5  1  0.10937400  0.60937800  0.34374900  1
  Cu  Cu6  1  0.60937400  0.10937800  0.34374900  1
  Cu  Cu7  1  0.60937400  0.60937800  0.34374900  1
  Cu  Cu8  1  0.04616472  0.02151797  0.55404158  1
  Cu  Cu9  1  0.05906288  0.53891900  0.54633263  1
  Cu  Cu10  1  0.54490917  0.11855633  0.54881948  1
  Cu  Cu11  1  0.54762333  0.62357003  0.53957581  1
  Cu  Cu12  1  0.45283860  0.39217715  0.46945900  1
  Cu  Cu13  1  0.39960695  0.89152116  0.46818067  1
  Cu  Cu14  1  0.94673399  0.45496157  0.46645944  1
  Cu  Cu15  1  0.87000937  0.97600744  0.46970450  1
  Cu  Cu16  1  0.36592633  0.35167499  0.62191223  1
  Cu  Cu17  1  0.39534471  0.87510006  0.61422947  1
  Cu  Cu18  1  0.85368020  0.43576175  0.61786532  1
  Cu  Cu19  1  0.91584172  0.90676476  0.63263526  1
  Cu  Cu20  1  0.19222451  0.20835289  0.58353325  1
  Cu  Cu21  1  0.24460189  0.68572736  0.59117712  1
  Cu  Cu22  1  0.71276625  0.24226034  0.59531369  1
  Cu  Cu23  1  0.73766075  0.77441457  0.58626734  1
  Se  Se24  1  0.43749700  0.43750300  0.37500000  1
  Se  Se25  1  0.43749700  0.93750300  0.37500000  1
  Se  Se26  1  0.93749700  0.43750300  0.37500000  1
  Se  Se27  1  0.93749700  0.93750300  0.37500000  1
  Se  Se28  1  0.26948038  0.22936165  0.49762089  1
  Se  Se29  1  0.21152518  0.74187068  0.50072464  1
  Se  Se30  1  0.76404028  0.28909320  0.50504517  1
  Se  Se31  1  0.73169808  0.77134179  0.49762176  1
  Se  Se32  1  0.05589100  0.09021876  0.64739321  1
  Se  Se33  1  0.03920517  0.56978703  0.64232820  1
  Se  Se34  1  0.57397607  0.03003232  0.64455679  1
  Se  Se35  1  0.52339274  0.54559704  0.64592109  1
  C  C36  1  0.41306055  0.57397278  0.72590435  1
  H  H37  1  0.52736346  0.51812431  0.79051296  1
  O  O38  1  0.55400536  0.51252142  0.75225637  1
