# generated using pymatgen
data_HW27
_symmetry_space_group_name_H-M   'P 1'
_cell_length_a   8.18352602
_cell_length_b   8.18352418
_cell_length_c   22.27285200
_cell_angle_alpha   89.99630328
_cell_angle_beta   89.99630328
_cell_angle_gamma   109.47270263
_symmetry_Int_Tables_number   1
_chemical_formula_structural   HW27
_chemical_formula_sum   'H1 W27'
_cell_volume   1406.29500171
_cell_formula_units_Z   1
loop_
 _symmetry_equiv_pos_site_id
 _symmetry_equiv_pos_as_xyz
  1  'x, y, z'
loop_
 _atom_site_type_symbol
 _atom_site_label
 _atom_site_symmetry_multiplicity
 _atom_site_fract_x
 _atom_site_fract_y
 _atom_site_fract_z
 _atom_site_occupancy
  W  W0  1  0.99955790  0.33363245  0.59757368  1
  W  W1  1  0.00067330  0.66802964  0.59759570  1
  W  W2  1  0.99863861  0.99863865  0.59749181  1
  W  W3  1  0.33455054  0.33455056  0.59749264  1
  W  W4  1  0.33252274  0.66516902  0.59759600  1
  W  W5  1  0.33363248  0.99955791  0.59757369  1
  W  W6  1  0.66516901  0.33252268  0.59759597  1
  W  W7  1  0.66660859  0.66660857  0.60522600  1
  W  W8  1  0.66802966  0.00067326  0.59759571  1
  W  W9  1  0.16663465  0.16663471  0.49914689  1
  W  W10  1  0.16628985  0.50000287  0.49885423  1
  W  W11  1  0.16697904  0.83327330  0.49885301  1
  W  W12  1  0.50000293  0.16628990  0.49885422  1
  W  W13  1  0.49901596  0.49901591  0.49841369  1
  W  W14  1  0.50104561  0.83222722  0.49953265  1
  W  W15  1  0.83327333  0.16697907  0.49885300  1
  W  W16  1  0.83222720  0.50104556  0.49953264  1
  W  W17  1  0.83425490  0.83425492  0.49841033  1
  W  W18  1  0.00000000  0.33333300  0.40000000  1
  W  W19  1  0.00000000  0.66666700  0.40000000  1
  W  W20  1  0.00000000  0.00000000  0.40000000  1
  W  W21  1  0.33333300  0.33333300  0.40000000  1
  W  W22  1  0.33333300  0.66666700  0.40000000  1
  W  W23  1  0.33333300  0.00000000  0.40000000  1
  W  W24  1  0.66666700  0.33333300  0.40000000  1
  W  W25  1  0.66666700  0.66666700  0.40000000  1
  W  W26  1  0.66666700  0.00000000  0.40000000  1
  H  H27  1  0.66660765  0.66660692  0.68473874  1
