# generated using pymatgen
data_Cu24HCSe12O
_symmetry_space_group_name_H-M   'P 1'
_cell_length_a   8.09471283
_cell_length_b   8.09451676
_cell_length_c   26.54075200
_cell_angle_alpha   85.62693029
_cell_angle_beta   85.62705062
_cell_angle_gamma   59.99922007
_symmetry_Int_Tables_number   1
_chemical_formula_structural   Cu24HCSe12O
_chemical_formula_sum   'Cu24 H1 Se12 C1 O1'
_cell_volume   1500.17856456
_cell_formula_units_Z   1
loop_
 _symmetry_equiv_pos_site_id
 _symmetry_equiv_pos_as_xyz
  1  'x, y, z'
loop_
 _atom_site_type_symbol
 _atom_site_label
 _atom_site_symmetry_multiplicity
 _atom_site_fract_x
 _atom_site_fract_y
 _atom_site_fract_z
 _atom_site_occupancy
  Cu  Cu0  1  0.26562200  0.26563000  0.40625100  1
  Cu  Cu1  1  0.25107929  0.75238475  0.41290181  1
  Cu  Cu2  1  0.76165003  0.27498549  0.40508773  1
  Cu  Cu3  1  0.76353837  0.76957596  0.40077535  1
  Cu  Cu4  1  0.10937300  0.10937800  0.34374900  1
  Cu  Cu5  1  0.10937400  0.60937800  0.34374900  1
  Cu  Cu6  1  0.60937400  0.10937800  0.34374900  1
  Cu  Cu7  1  0.60937400  0.60937800  0.34374900  1
  Cu  Cu8  1  0.03848360  0.05935993  0.54699479  1
  Cu  Cu9  1  0.04443326  0.56196728  0.55597084  1
  Cu  Cu10  1  0.51890538  0.15508778  0.53892166  1
  Cu  Cu11  1  0.56342604  0.55606144  0.56144680  1
  Cu  Cu12  1  0.31792919  0.49142971  0.48985383  1
  Cu  Cu13  1  0.48092691  0.98763317  0.46544546  1
  Cu  Cu14  1  0.82032626  0.43350203  0.48039999  1
  Cu  Cu15  1  0.01988996  0.82702863  0.49121037  1
  Cu  Cu16  1  0.37311033  0.39021090  0.60818442  1
  Cu  Cu17  1  0.40570404  0.81456201  0.63740244  1
  Cu  Cu18  1  0.85277175  0.43734624  0.61281310  1
  Cu  Cu19  1  0.88756422  0.88654972  0.62139585  1
  Cu  Cu20  1  0.25023682  0.14756229  0.58845372  1
  Cu  Cu21  1  0.21562044  0.72722218  0.58397212  1
  Cu  Cu22  1  0.71947649  0.23318582  0.59560308  1
  Cu  Cu23  1  0.67458288  0.78560141  0.58081016  1
  Se  Se24  1  0.43749700  0.43750300  0.37500000  1
  Se  Se25  1  0.43749700  0.93750300  0.37500000  1
  Se  Se26  1  0.93749700  0.43750300  0.37500000  1
  Se  Se27  1  0.93749700  0.93750300  0.37500000  1
  Se  Se28  1  0.20286277  0.26881267  0.49923605  1
  Se  Se29  1  0.33588250  0.77296248  0.49821252  1
  Se  Se30  1  0.77296321  0.17177393  0.49306397  1
  Se  Se31  1  0.78173062  0.73347624  0.49437403  1
  Se  Se32  1  0.03109087  0.07816005  0.64017616  1
  Se  Se33  1  0.05247718  0.55562989  0.64579516  1
  Se  Se34  1  0.54097170  0.04594529  0.63738315  1
  Se  Se35  1  0.46590711  0.58825198  0.70512654  1
  C  C36  1  0.61398643  0.61557563  0.75232050  1
  H  H37  1  0.66709803  0.49329793  0.78087177  1
  O  O38  1  0.65654660  0.74136300  0.75377580  1
