# generated using pymatgen
data_Cu24H2CSe12O
_symmetry_space_group_name_H-M   'P 1'
_cell_length_a   8.09471283
_cell_length_b   8.09451676
_cell_length_c   26.54075200
_cell_angle_alpha   85.62693029
_cell_angle_beta   85.62705062
_cell_angle_gamma   59.99922007
_symmetry_Int_Tables_number   1
_chemical_formula_structural   Cu24H2CSe12O
_chemical_formula_sum   'Cu24 H2 Se12 C1 O1'
_cell_volume   1500.17856456
_cell_formula_units_Z   1
loop_
 _symmetry_equiv_pos_site_id
 _symmetry_equiv_pos_as_xyz
  1  'x, y, z'
loop_
 _atom_site_type_symbol
 _atom_site_label
 _atom_site_symmetry_multiplicity
 _atom_site_fract_x
 _atom_site_fract_y
 _atom_site_fract_z
 _atom_site_occupancy
  Cu  Cu0  1  0.26562200  0.26563000  0.40625100  1
  Cu  Cu1  1  0.26106594  0.76685553  0.41038235  1
  Cu  Cu2  1  0.76597841  0.26272544  0.40915811  1
  Cu  Cu3  1  0.76786169  0.76636661  0.41012455  1
  Cu  Cu4  1  0.10937300  0.10937800  0.34374900  1
  Cu  Cu5  1  0.10937400  0.60937800  0.34374900  1
  Cu  Cu6  1  0.60937400  0.10937800  0.34374900  1
  Cu  Cu7  1  0.60937400  0.60937800  0.34374900  1
  Cu  Cu8  1  0.04469179  0.12033367  0.54181417  1
  Cu  Cu9  1  0.12042820  0.56143614  0.54135897  1
  Cu  Cu10  1  0.56072629  0.04471232  0.54213278  1
  Cu  Cu11  1  0.58023570  0.56320627  0.55038745  1
  Cu  Cu12  1  0.39305972  0.45522347  0.46821252  1
  Cu  Cu13  1  0.45718187  0.92346290  0.46751502  1
  Cu  Cu14  1  0.91506483  0.38923231  0.46833759  1
  Cu  Cu15  1  0.93072894  0.91014283  0.46785014  1
  Cu  Cu16  1  0.40023198  0.41664544  0.60921274  1
  Cu  Cu17  1  0.41953365  0.87024657  0.60916666  1
  Cu  Cu18  1  0.87723502  0.40253970  0.60930930  1
  Cu  Cu19  1  0.89002769  0.88719956  0.66428693  1
  Cu  Cu20  1  0.23621475  0.23173920  0.59015278  1
  Cu  Cu21  1  0.15556081  0.78288681  0.59346133  1
  Cu  Cu22  1  0.75666083  0.16556133  0.59409694  1
  Cu  Cu23  1  0.78761761  0.76051317  0.59348591  1
  Se  Se24  1  0.43749700  0.43750300  0.37500000  1
  Se  Se25  1  0.43749700  0.93750300  0.37500000  1
  Se  Se26  1  0.93749700  0.43750300  0.37500000  1
  Se  Se27  1  0.93749700  0.93750300  0.37500000  1
  Se  Se28  1  0.24732956  0.25208099  0.49749609  1
  Se  Se29  1  0.25718292  0.77343117  0.50276023  1
  Se  Se30  1  0.72387169  0.24159430  0.50164114  1
  Se  Se31  1  0.77426931  0.71886358  0.50260491  1
  Se  Se32  1  0.06945079  0.06479938  0.63770062  1
  Se  Se33  1  0.06760716  0.54360579  0.63908913  1
  Se  Se34  1  0.54755106  0.06364288  0.63805883  1
  Se  Se35  1  0.56087756  0.55473491  0.64374884  1
  C  C36  1  0.88123997  0.90214476  0.73511405  1
  O  O37  1  0.77863271  0.06310686  0.75669632  1
  H  H38  1  0.96554561  0.78178382  0.76207221  1
  H  H39  1  0.79100646  0.05449659  0.79413107  1
