# generated using pymatgen
data_Cu27H
_symmetry_space_group_name_H-M   'P 1'
_cell_length_a   7.56931204
_cell_length_b   6.17958932
_cell_length_c   26.20755800
_cell_angle_alpha   89.93253853
_cell_angle_beta   90.00615399
_cell_angle_gamma   90.00637696
_symmetry_Int_Tables_number   1
_chemical_formula_structural   Cu27H
_chemical_formula_sum   'Cu27 H1'
_cell_volume   1225.86394768
_cell_formula_units_Z   1
loop_
 _symmetry_equiv_pos_site_id
 _symmetry_equiv_pos_as_xyz
  1  'x, y, z'
loop_
 _atom_site_type_symbol
 _atom_site_label
 _atom_site_symmetry_multiplicity
 _atom_site_fract_x
 _atom_site_fract_y
 _atom_site_fract_z
 _atom_site_occupancy
  Cu  Cu0  1  0.00000100  0.70833300  0.43055600  1
  Cu  Cu1  1  0.33333400  0.70833300  0.43055600  1
  Cu  Cu2  1  0.66666700  0.70833300  0.43055600  1
  Cu  Cu3  1  0.00000100  0.04166600  0.48611100  1
  Cu  Cu4  1  0.33333400  0.04166600  0.48611100  1
  Cu  Cu5  1  0.66666700  0.04166600  0.48611100  1
  Cu  Cu6  1  0.99978734  0.37285005  0.54258588  1
  Cu  Cu7  1  0.33335819  0.37248868  0.54243046  1
  Cu  Cu8  1  0.66689123  0.37285518  0.54258694  1
  Cu  Cu9  1  0.16666700  0.37500000  0.45833300  1
  Cu  Cu10  1  0.50000000  0.37500000  0.45833300  1
  Cu  Cu11  1  0.83333400  0.37500000  0.45833300  1
  Cu  Cu12  1  0.16650437  0.70903257  0.51393159  1
  Cu  Cu13  1  0.50018620  0.70903613  0.51393199  1
  Cu  Cu14  1  0.83335902  0.70905168  0.51407909  1
  Cu  Cu15  1  0.00008874  0.70004397  0.60037835  1
  Cu  Cu16  1  0.33337936  0.69861531  0.59970736  1
  Cu  Cu17  1  0.66664575  0.70003321  0.60037811  1
  Cu  Cu18  1  0.99901661  0.04122049  0.65121325  1
  Cu  Cu19  1  0.33335922  0.03868467  0.64946900  1
  Cu  Cu20  1  0.66767365  0.04120781  0.65121690  1
  Cu  Cu21  1  0.16600671  0.03323943  0.56968988  1
  Cu  Cu22  1  0.50068628  0.03323592  0.56969072  1
  Cu  Cu23  1  0.83335108  0.03311346  0.56989653  1
  Cu  Cu24  1  0.16652129  0.37105243  0.62706668  1
  Cu  Cu25  1  0.50020002  0.37103972  0.62707063  1
  Cu  Cu26  1  0.83337111  0.37167982  0.62740075  1
  H  H27  1  0.33342924  0.02947560  0.77910593  1
