# generated using pymatgen
data_Cu24CSe12O
_symmetry_space_group_name_H-M   'P 1'
_cell_length_a   8.09471283
_cell_length_b   8.09451676
_cell_length_c   26.54075200
_cell_angle_alpha   85.62693029
_cell_angle_beta   85.62705062
_cell_angle_gamma   59.99922007
_symmetry_Int_Tables_number   1
_chemical_formula_structural   Cu24CSe12O
_chemical_formula_sum   'Cu24 Se12 C1 O1'
_cell_volume   1500.17856456
_cell_formula_units_Z   1
loop_
 _symmetry_equiv_pos_site_id
 _symmetry_equiv_pos_as_xyz
  1  'x, y, z'
loop_
 _atom_site_type_symbol
 _atom_site_label
 _atom_site_symmetry_multiplicity
 _atom_site_fract_x
 _atom_site_fract_y
 _atom_site_fract_z
 _atom_site_occupancy
  Cu  Cu0  1  0.26562200  0.26563000  0.40625100  1
  Cu  Cu1  1  0.26213124  0.76649379  0.40972974  1
  Cu  Cu2  1  0.76647561  0.26219845  0.40968636  1
  Cu  Cu3  1  0.76659093  0.76658494  0.40975889  1
  Cu  Cu4  1  0.10937300  0.10937800  0.34374900  1
  Cu  Cu5  1  0.10937400  0.60937800  0.34374900  1
  Cu  Cu6  1  0.60937400  0.10937800  0.34374900  1
  Cu  Cu7  1  0.60937400  0.60937800  0.34374900  1
  Cu  Cu8  1  0.07919440  0.07969635  0.54086259  1
  Cu  Cu9  1  0.08287286  0.56729603  0.54150247  1
  Cu  Cu10  1  0.56731222  0.08307684  0.54151070  1
  Cu  Cu11  1  0.57441107  0.57454409  0.55422600  1
  Cu  Cu12  1  0.42247371  0.42266273  0.46721750  1
  Cu  Cu13  1  0.42378263  0.92018591  0.46716727  1
  Cu  Cu14  1  0.92003469  0.42391792  0.46718925  1
  Cu  Cu15  1  0.92218931  0.92209023  0.46913322  1
  Cu  Cu16  1  0.40751091  0.40798591  0.61077644  1
  Cu  Cu17  1  0.41112200  0.87489594  0.61188411  1
  Cu  Cu18  1  0.87519393  0.41122746  0.61174236  1
  Cu  Cu19  1  0.89027199  0.89124690  0.65955567  1
  Cu  Cu20  1  0.23394903  0.23374288  0.58895134  1
  Cu  Cu21  1  0.17750670  0.76345825  0.59355146  1
  Cu  Cu22  1  0.76287568  0.17838272  0.59357045  1
  Cu  Cu23  1  0.76512697  0.76537927  0.59309807  1
  Se  Se24  1  0.43749700  0.43750300  0.37500000  1
  Se  Se25  1  0.43749700  0.93750300  0.37500000  1
  Se  Se26  1  0.93749700  0.43750300  0.37500000  1
  Se  Se27  1  0.93749700  0.93750300  0.37500000  1
  Se  Se28  1  0.24996521  0.25001339  0.49787373  1
  Se  Se29  1  0.25552659  0.74676956  0.50218749  1
  Se  Se30  1  0.74673668  0.25540599  0.50214660  1
  Se  Se31  1  0.74703074  0.74718492  0.50228297  1
  Se  Se32  1  0.06778881  0.06785875  0.63759496  1
  Se  Se33  1  0.06644261  0.54739755  0.63803327  1
  Se  Se34  1  0.54713788  0.06660764  0.63807103  1
  Se  Se35  1  0.55748225  0.55702126  0.64685468  1
  O  O36  1  0.88060196  0.86867594  0.77277333  1
  C  C37  1  0.88300623  0.87820629  0.72947901  1
