# generated using pymatgen
data_Cu24C(Se6O)2
_symmetry_space_group_name_H-M   'P 1'
_cell_length_a   8.09471283
_cell_length_b   8.09451676
_cell_length_c   26.54075200
_cell_angle_alpha   85.62693029
_cell_angle_beta   85.62705062
_cell_angle_gamma   59.99922007
_symmetry_Int_Tables_number   1
_chemical_formula_structural   Cu24C(Se6O)2
_chemical_formula_sum   'Cu24 Se12 C1 O2'
_cell_volume   1500.17856456
_cell_formula_units_Z   1
loop_
 _symmetry_equiv_pos_site_id
 _symmetry_equiv_pos_as_xyz
  1  'x, y, z'
loop_
 _atom_site_type_symbol
 _atom_site_label
 _atom_site_symmetry_multiplicity
 _atom_site_fract_x
 _atom_site_fract_y
 _atom_site_fract_z
 _atom_site_occupancy
  Cu  Cu0  1  0.26562200  0.26563000  0.40625100  1
  Cu  Cu1  1  0.26009709  0.78119753  0.40797871  1
  Cu  Cu2  1  0.75701991  0.27978222  0.40757192  1
  Cu  Cu3  1  0.76038443  0.77968352  0.40887329  1
  Cu  Cu4  1  0.10937300  0.10937800  0.34374900  1
  Cu  Cu5  1  0.10937400  0.60937800  0.34374900  1
  Cu  Cu6  1  0.60937400  0.10937800  0.34374900  1
  Cu  Cu7  1  0.60937400  0.60937800  0.34374900  1
  Cu  Cu8  1  0.03568982  0.11115372  0.55050269  1
  Cu  Cu9  1  0.07214447  0.63091850  0.55141290  1
  Cu  Cu10  1  0.52786562  0.10211099  0.55159728  1
  Cu  Cu11  1  0.60281665  0.57010372  0.54905702  1
  Cu  Cu12  1  0.44369007  0.34263240  0.46853417  1
  Cu  Cu13  1  0.47192048  0.84564931  0.46985312  1
  Cu  Cu14  1  0.93262197  0.35818056  0.47094639  1
  Cu  Cu15  1  0.97619967  0.84951485  0.46923042  1
  Cu  Cu16  1  0.37458869  0.41497263  0.61881678  1
  Cu  Cu17  1  0.39912053  0.93783145  0.62199714  1
  Cu  Cu18  1  0.85921491  0.39847475  0.62018596  1
  Cu  Cu19  1  0.92824539  0.88365691  0.61913212  1
  Cu  Cu20  1  0.18918848  0.28583849  0.58223726  1
  Cu  Cu21  1  0.26099588  0.76694710  0.58316103  1
  Cu  Cu22  1  0.70773583  0.23581220  0.58651104  1
  Cu  Cu23  1  0.73211353  0.75613474  0.58814812  1
  Se  Se24  1  0.43749700  0.43750300  0.37500000  1
  Se  Se25  1  0.43749700  0.93750300  0.37500000  1
  Se  Se26  1  0.93749700  0.43750300  0.37500000  1
  Se  Se27  1  0.93749700  0.93750300  0.37500000  1
  Se  Se28  1  0.27405102  0.16773153  0.49722552  1
  Se  Se29  1  0.30993509  0.66161729  0.49701113  1
  Se  Se30  1  0.77591250  0.16710935  0.49745943  1
  Se  Se31  1  0.80101977  0.67645628  0.49899504  1
  Se  Se32  1  0.07007255  0.06138134  0.64193429  1
  Se  Se33  1  0.04137294  0.54633573  0.64159938  1
  Se  Se34  1  0.58764990  0.06374143  0.64378021  1
  Se  Se35  1  0.53003404  0.58432316  0.64227105  1
  C  C36  1  0.86166289  0.94031325  0.75204280  1
  O  O37  1  0.76893669  0.10730204  0.75283153  1
  O  O38  1  0.95405234  0.77406719  0.75075268  1
