# generated using pymatgen
data_Mo12HSe24
_symmetry_space_group_name_H-M   'P 1'
_cell_length_a   6.57932100
_cell_length_b   13.15865201
_cell_length_c   25.69278231
_cell_angle_alpha   90.00141744
_cell_angle_beta   86.32845510
_cell_angle_gamma   89.99834975
_symmetry_Int_Tables_number   1
_chemical_formula_structural   Mo12HSe24
_chemical_formula_sum   'Mo12 H1 Se24'
_cell_volume   2219.78712514
_cell_formula_units_Z   1
loop_
 _symmetry_equiv_pos_site_id
 _symmetry_equiv_pos_as_xyz
  1  'x, y, z'
loop_
 _atom_site_type_symbol
 _atom_site_label
 _atom_site_symmetry_multiplicity
 _atom_site_fract_x
 _atom_site_fract_y
 _atom_site_fract_z
 _atom_site_occupancy
  Mo  Mo0  1  0.40730700  0.75010700  0.37035000  1
  Mo  Mo1  1  0.90730700  0.75010700  0.37035000  1
  Mo  Mo2  1  0.14824900  0.24988800  0.40742800  1
  Mo  Mo3  1  0.64824900  0.24988800  0.40742800  1
  Mo  Mo4  1  0.12930006  0.75007322  0.48116933  1
  Mo  Mo5  1  0.62928864  0.75007489  0.48116788  1
  Mo  Mo6  1  0.36561425  0.25005103  0.52288616  1
  Mo  Mo7  1  0.87205893  0.25003927  0.52294767  1
  Mo  Mo8  1  0.35148313  0.75067566  0.59325645  1
  Mo  Mo9  1  0.85159205  0.74935570  0.59325800  1
  Mo  Mo10  1  0.09245623  0.25011552  0.62529305  1
  Mo  Mo11  1  0.59319938  0.25047114  0.62526858  1
  Se  Se12  1  0.14805500  0.62304600  0.40738500  1
  Se  Se13  1  0.64805500  0.62304600  0.40738500  1
  Se  Se14  1  0.40751700  0.12282800  0.37038900  1
  Se  Se15  1  0.90751700  0.12282800  0.37038900  1
  Se  Se16  1  0.14804000  0.87717700  0.40738900  1
  Se  Se17  1  0.64804000  0.87717700  0.40738900  1
  Se  Se18  1  0.40750200  0.37696000  0.37039300  1
  Se  Se19  1  0.90750200  0.37696000  0.37039300  1
  Se  Se20  1  0.36981664  0.62311895  0.51944669  1
  Se  Se21  1  0.86979864  0.62296306  0.51910684  1
  Se  Se22  1  0.12894178  0.12448873  0.48283993  1
  Se  Se23  1  0.62880668  0.12631051  0.48338120  1
  Se  Se24  1  0.36987387  0.87714534  0.51914309  1
  Se  Se25  1  0.86971174  0.87697655  0.51947826  1
  Se  Se26  1  0.12893071  0.37538996  0.48273736  1
  Se  Se27  1  0.62882832  0.37356751  0.48330191  1
  Se  Se28  1  0.09131425  0.62665822  0.63265630  1
  Se  Se29  1  0.59192285  0.62687311  0.63286141  1
  Se  Se30  1  0.35091853  0.11823381  0.59713082  1
  Se  Se31  1  0.84900435  0.11806185  0.59709202  1
  Se  Se32  1  0.09197512  0.87333942  0.63269052  1
  Se  Se33  1  0.59128091  0.87308517  0.63290339  1
  Se  Se34  1  0.35065793  0.38213270  0.59698325  1
  Se  Se35  1  0.84930179  0.38237974  0.59693900  1
  H  H36  1  0.57763965  0.24751959  0.69320209  1
