# generated using pymatgen
data_Cu27CO
_symmetry_space_group_name_H-M   'P 1'
_cell_length_a   7.56931204
_cell_length_b   6.17958932
_cell_length_c   26.20755800
_cell_angle_alpha   89.93253853
_cell_angle_beta   90.00615399
_cell_angle_gamma   90.00637696
_symmetry_Int_Tables_number   1
_chemical_formula_structural   Cu27CO
_chemical_formula_sum   'Cu27 C1 O1'
_cell_volume   1225.86394768
_cell_formula_units_Z   1
loop_
 _symmetry_equiv_pos_site_id
 _symmetry_equiv_pos_as_xyz
  1  'x, y, z'
loop_
 _atom_site_type_symbol
 _atom_site_label
 _atom_site_symmetry_multiplicity
 _atom_site_fract_x
 _atom_site_fract_y
 _atom_site_fract_z
 _atom_site_occupancy
  Cu  Cu0  1  0.00000100  0.70833300  0.43055600  1
  Cu  Cu1  1  0.33333400  0.70833300  0.43055600  1
  Cu  Cu2  1  0.66666700  0.70833300  0.43055600  1
  Cu  Cu3  1  0.00000100  0.04166600  0.48611100  1
  Cu  Cu4  1  0.33333400  0.04166600  0.48611100  1
  Cu  Cu5  1  0.66666700  0.04166600  0.48611100  1
  Cu  Cu6  1  0.00005365  0.37474260  0.54207198  1
  Cu  Cu7  1  0.33529951  0.37339542  0.54362325  1
  Cu  Cu8  1  0.66471422  0.37340410  0.54368307  1
  Cu  Cu9  1  0.16666700  0.37500000  0.45833300  1
  Cu  Cu10  1  0.50000000  0.37500000  0.45833300  1
  Cu  Cu11  1  0.83333400  0.37500000  0.45833300  1
  Cu  Cu12  1  0.16722850  0.71000895  0.51360398  1
  Cu  Cu13  1  0.50004436  0.70921478  0.51331350  1
  Cu  Cu14  1  0.83278241  0.70998785  0.51361559  1
  Cu  Cu15  1  0.00009770  0.70405902  0.59936620  1
  Cu  Cu16  1  0.33330361  0.70405588  0.59925540  1
  Cu  Cu17  1  0.66688911  0.70384298  0.59931333  1
  Cu  Cu18  1  0.00009785  0.04194740  0.65127338  1
  Cu  Cu19  1  0.33112813  0.03905403  0.65137472  1
  Cu  Cu20  1  0.66942756  0.03857688  0.65131687  1
  Cu  Cu21  1  0.16738476  0.03676829  0.57006576  1
  Cu  Cu22  1  0.50003212  0.03537683  0.56987353  1
  Cu  Cu23  1  0.83271370  0.03674592  0.57003977  1
  Cu  Cu24  1  0.16398561  0.37482642  0.62650352  1
  Cu  Cu25  1  0.50047526  0.37884073  0.63038612  1
  Cu  Cu26  1  0.83609637  0.37474458  0.62654898  1
  O  O27  1  0.48894530  0.36613192  0.74486655  1
  C  C28  1  0.49199572  0.35057861  0.70061811  1
