# generated using pymatgen
data_Cu24CSe12O
_symmetry_space_group_name_H-M   'P 1'
_cell_length_a   8.09471283
_cell_length_b   8.09451676
_cell_length_c   26.54075200
_cell_angle_alpha   85.62693029
_cell_angle_beta   85.62705062
_cell_angle_gamma   59.99922007
_symmetry_Int_Tables_number   1
_chemical_formula_structural   Cu24CSe12O
_chemical_formula_sum   'Cu24 Se12 C1 O1'
_cell_volume   1500.17856456
_cell_formula_units_Z   1
loop_
 _symmetry_equiv_pos_site_id
 _symmetry_equiv_pos_as_xyz
  1  'x, y, z'
loop_
 _atom_site_type_symbol
 _atom_site_label
 _atom_site_symmetry_multiplicity
 _atom_site_fract_x
 _atom_site_fract_y
 _atom_site_fract_z
 _atom_site_occupancy
  Cu  Cu0  1  0.26562200  0.26563000  0.40625100  1
  Cu  Cu1  1  0.26207929  0.76625944  0.41029837  1
  Cu  Cu2  1  0.76623905  0.26217278  0.41024382  1
  Cu  Cu3  1  0.76648221  0.76646798  0.41036674  1
  Cu  Cu4  1  0.10937300  0.10937800  0.34374900  1
  Cu  Cu5  1  0.10937400  0.60937800  0.34374900  1
  Cu  Cu6  1  0.60937400  0.10937800  0.34374900  1
  Cu  Cu7  1  0.60937400  0.60937800  0.34374900  1
  Cu  Cu8  1  0.07927659  0.07992128  0.54083435  1
  Cu  Cu9  1  0.08362286  0.56648372  0.54157158  1
  Cu  Cu10  1  0.56656893  0.08380290  0.54157100  1
  Cu  Cu11  1  0.57422082  0.57429773  0.55347150  1
  Cu  Cu12  1  0.42286087  0.42312750  0.46747388  1
  Cu  Cu13  1  0.42436326  0.91951406  0.46736590  1
  Cu  Cu14  1  0.91943031  0.42444097  0.46739509  1
  Cu  Cu15  1  0.92214017  0.92202574  0.46897414  1
  Cu  Cu16  1  0.40740397  0.40791643  0.60973294  1
  Cu  Cu17  1  0.41170727  0.87436211  0.61101715  1
  Cu  Cu18  1  0.87475252  0.41176793  0.61085841  1
  Cu  Cu19  1  0.89004787  0.89099186  0.66094901  1
  Cu  Cu20  1  0.23363087  0.23332887  0.58874755  1
  Cu  Cu21  1  0.17374767  0.76517764  0.59390650  1
  Cu  Cu22  1  0.76455400  0.17468180  0.59393284  1
  Cu  Cu23  1  0.76721370  0.76743530  0.59339180  1
  Se  Se24  1  0.43749700  0.43750300  0.37500000  1
  Se  Se25  1  0.43749700  0.93750300  0.37500000  1
  Se  Se26  1  0.93749700  0.43750300  0.37500000  1
  Se  Se27  1  0.93749700  0.93750300  0.37500000  1
  Se  Se28  1  0.25008568  0.25006808  0.49782455  1
  Se  Se29  1  0.25488092  0.74725261  0.50254033  1
  Se  Se30  1  0.74719331  0.25475687  0.50248904  1
  Se  Se31  1  0.74731699  0.74742736  0.50269564  1
  Se  Se32  1  0.06800748  0.06802330  0.63805817  1
  Se  Se33  1  0.06638566  0.54670828  0.63853474  1
  Se  Se34  1  0.54647212  0.06651845  0.63856411  1
  Se  Se35  1  0.55718497  0.55661236  0.64639885  1
  O  O36  1  0.88040249  0.86890543  0.77390309  1
  C  C37  1  0.88288907  0.87823628  0.73057371  1
