# generated using pymatgen
data_Cu24H2CSe12O
_symmetry_space_group_name_H-M   'P 1'
_cell_length_a   8.09471283
_cell_length_b   8.09451676
_cell_length_c   26.54075200
_cell_angle_alpha   85.62693029
_cell_angle_beta   85.62705062
_cell_angle_gamma   59.99922007
_symmetry_Int_Tables_number   1
_chemical_formula_structural   Cu24H2CSe12O
_chemical_formula_sum   'Cu24 H2 Se12 C1 O1'
_cell_volume   1500.17856456
_cell_formula_units_Z   1
loop_
 _symmetry_equiv_pos_site_id
 _symmetry_equiv_pos_as_xyz
  1  'x, y, z'
loop_
 _atom_site_type_symbol
 _atom_site_label
 _atom_site_symmetry_multiplicity
 _atom_site_fract_x
 _atom_site_fract_y
 _atom_site_fract_z
 _atom_site_occupancy
  Cu  Cu0  1  0.26562200  0.26563000  0.40625100  1
  Cu  Cu1  1  0.26467381  0.76621338  0.40725698  1
  Cu  Cu2  1  0.76629674  0.26412509  0.40763331  1
  Cu  Cu3  1  0.76588987  0.76612408  0.40722135  1
  Cu  Cu4  1  0.10937300  0.10937800  0.34374900  1
  Cu  Cu5  1  0.10937400  0.60937800  0.34374900  1
  Cu  Cu6  1  0.60937400  0.10937800  0.34374900  1
  Cu  Cu7  1  0.60937400  0.60937800  0.34374900  1
  Cu  Cu8  1  0.07653325  0.07022971  0.54435714  1
  Cu  Cu9  1  0.08067952  0.57771279  0.54650508  1
  Cu  Cu10  1  0.56198770  0.08119905  0.54513420  1
  Cu  Cu11  1  0.58779030  0.56966257  0.55143556  1
  Cu  Cu12  1  0.42209005  0.41911238  0.46748824  1
  Cu  Cu13  1  0.42180401  0.92527599  0.46832104  1
  Cu  Cu14  1  0.91965338  0.42180881  0.46764848  1
  Cu  Cu15  1  0.92500948  0.92135872  0.46944246  1
  Cu  Cu16  1  0.39701605  0.39507195  0.61706269  1
  Cu  Cu17  1  0.40328684  0.89539607  0.61771206  1
  Cu  Cu18  1  0.87802241  0.40676486  0.61848357  1
  Cu  Cu19  1  0.90923357  0.88848844  0.62638366  1
  Cu  Cu20  1  0.22324618  0.23874865  0.58961059  1
  Cu  Cu21  1  0.23838837  0.73528389  0.59014335  1
  Cu  Cu22  1  0.74013206  0.21914363  0.59035284  1
  Cu  Cu23  1  0.74310876  0.74470960  0.58981373  1
  Se  Se24  1  0.43749700  0.43750300  0.37500000  1
  Se  Se25  1  0.43749700  0.93750300  0.37500000  1
  Se  Se26  1  0.93749700  0.43750300  0.37500000  1
  Se  Se27  1  0.93749700  0.93750300  0.37500000  1
  Se  Se28  1  0.24689940  0.25283707  0.49917458  1
  Se  Se29  1  0.25409072  0.74708373  0.50004139  1
  Se  Se30  1  0.74725956  0.25284239  0.50038868  1
  Se  Se31  1  0.74944376  0.74845094  0.50003673  1
  Se  Se32  1  0.06313185  0.06737662  0.63970767  1
  Se  Se33  1  0.05963319  0.55090885  0.64151676  1
  Se  Se34  1  0.56395350  0.05882698  0.63991202  1
  Se  Se35  1  0.54664825  0.56366322  0.64503619  1
  C  C36  1  0.88225954  0.88434008  0.76940516  1
  O  O37  1  0.86585047  0.91090359  0.72367075  1
  H  H38  1  0.95788535  0.73813132  0.78728073  1
  H  H39  1  0.82137134  0.00683690  0.79455120  1
