# generated using pymatgen
data_Cu24HCSe12O
_symmetry_space_group_name_H-M   'P 1'
_cell_length_a   8.09471283
_cell_length_b   8.09451676
_cell_length_c   26.54075200
_cell_angle_alpha   85.62693029
_cell_angle_beta   85.62705062
_cell_angle_gamma   59.99922007
_symmetry_Int_Tables_number   1
_chemical_formula_structural   Cu24HCSe12O
_chemical_formula_sum   'Cu24 H1 Se12 C1 O1'
_cell_volume   1500.17856456
_cell_formula_units_Z   1
loop_
 _symmetry_equiv_pos_site_id
 _symmetry_equiv_pos_as_xyz
  1  'x, y, z'
loop_
 _atom_site_type_symbol
 _atom_site_label
 _atom_site_symmetry_multiplicity
 _atom_site_fract_x
 _atom_site_fract_y
 _atom_site_fract_z
 _atom_site_occupancy
  Cu  Cu0  1  0.26562200  0.26563000  0.40625100  1
  Cu  Cu1  1  0.25189231  0.76386301  0.41414110  1
  Cu  Cu2  1  0.76314991  0.26617836  0.40353174  1
  Cu  Cu3  1  0.77063881  0.76476931  0.40302949  1
  Cu  Cu4  1  0.10937300  0.10937800  0.34374900  1
  Cu  Cu5  1  0.10937400  0.60937800  0.34374900  1
  Cu  Cu6  1  0.60937400  0.10937800  0.34374900  1
  Cu  Cu7  1  0.60937400  0.60937800  0.34374900  1
  Cu  Cu8  1  0.24309731  0.02907379  0.55672351  1
  Cu  Cu9  1  0.94635237  0.68825902  0.56095043  1
  Cu  Cu10  1  0.60540077  0.04388860  0.55421191  1
  Cu  Cu11  1  0.56185501  0.44444329  0.55880094  1
  Cu  Cu12  1  0.47999480  0.46531604  0.46849957  1
  Cu  Cu13  1  0.37069558  0.93811931  0.46783071  1
  Cu  Cu14  1  0.99807692  0.39093896  0.51493563  1
  Cu  Cu15  1  0.88932264  0.92285018  0.48304716  1
  Cu  Cu16  1  0.54826326  0.23866048  0.63132599  1
  Cu  Cu17  1  0.39998246  0.03685422  0.63289845  1
  Cu  Cu18  1  0.88458828  0.40278041  0.61196367  1
  Cu  Cu19  1  0.78243179  0.88321982  0.63486338  1
  Cu  Cu20  1  0.24641792  0.34983591  0.57804960  1
  Cu  Cu21  1  0.21257434  0.73532114  0.60195052  1
  Cu  Cu22  1  0.86604778  0.10935438  0.57822145  1
  Cu  Cu23  1  0.60372820  0.74008094  0.58190813  1
  Se  Se24  1  0.43749700  0.43750300  0.37500000  1
  Se  Se25  1  0.43749700  0.93750300  0.37500000  1
  Se  Se26  1  0.93749700  0.43750300  0.37500000  1
  Se  Se27  1  0.93749700  0.93750300  0.37500000  1
  Se  Se28  1  0.33870160  0.23405328  0.49462754  1
  Se  Se29  1  0.23507353  0.75166877  0.50610008  1
  Se  Se30  1  0.80828538  0.25123650  0.49338035  1
  Se  Se31  1  0.74692909  0.72069123  0.49403170  1
  Se  Se32  1  0.08727717  0.05374477  0.64007953  1
  Se  Se33  1  0.05803613  0.55400991  0.64362894  1
  Se  Se34  1  0.44620771  0.12224073  0.71530019  1
  Se  Se35  1  0.54181627  0.54197984  0.64263406  1
  C  C36  1  0.71052686  0.96822072  0.70277027  1
  H  H37  1  0.95156764  0.85203028  0.73239168  1
  O  O38  1  0.81528480  0.93390798  0.74247926  1
