# generated using pymatgen
data_Mo12HSe24
_symmetry_space_group_name_H-M   'P 1'
_cell_length_a   6.57932100
_cell_length_b   13.15865201
_cell_length_c   25.69278231
_cell_angle_alpha   90.00141744
_cell_angle_beta   86.32845510
_cell_angle_gamma   89.99834975
_symmetry_Int_Tables_number   1
_chemical_formula_structural   Mo12HSe24
_chemical_formula_sum   'Mo12 H1 Se24'
_cell_volume   2219.78712514
_cell_formula_units_Z   1
loop_
 _symmetry_equiv_pos_site_id
 _symmetry_equiv_pos_as_xyz
  1  'x, y, z'
loop_
 _atom_site_type_symbol
 _atom_site_label
 _atom_site_symmetry_multiplicity
 _atom_site_fract_x
 _atom_site_fract_y
 _atom_site_fract_z
 _atom_site_occupancy
  Mo  Mo0  1  0.40730700  0.75010700  0.37035000  1
  Mo  Mo1  1  0.90730700  0.75010700  0.37035000  1
  Mo  Mo2  1  0.14824900  0.24988800  0.40742800  1
  Mo  Mo3  1  0.64824900  0.24988800  0.40742800  1
  Mo  Mo4  1  0.12929915  0.75007347  0.48126847  1
  Mo  Mo5  1  0.62929690  0.75007311  0.48124779  1
  Mo  Mo6  1  0.36212021  0.24997666  0.52375474  1
  Mo  Mo7  1  0.87505617  0.24997508  0.52381400  1
  Mo  Mo8  1  0.35112220  0.75006521  0.59353323  1
  Mo  Mo9  1  0.85186635  0.74998500  0.59353518  1
  Mo  Mo10  1  0.09388596  0.25002218  0.62065211  1
  Mo  Mo11  1  0.59409648  0.25007701  0.62229655  1
  Se  Se12  1  0.14805500  0.62304600  0.40738500  1
  Se  Se13  1  0.64805500  0.62304600  0.40738500  1
  Se  Se14  1  0.40751700  0.12282800  0.37038900  1
  Se  Se15  1  0.90751700  0.12282800  0.37038900  1
  Se  Se16  1  0.14804000  0.87717700  0.40738900  1
  Se  Se17  1  0.64804000  0.87717700  0.40738900  1
  Se  Se18  1  0.40750200  0.37696000  0.37039300  1
  Se  Se19  1  0.90750200  0.37696000  0.37039300  1
  Se  Se20  1  0.36991682  0.62324593  0.51937028  1
  Se  Se21  1  0.86973263  0.62323986  0.51935027  1
  Se  Se22  1  0.12895691  0.12399214  0.48269228  1
  Se  Se23  1  0.62862135  0.12737002  0.48406932  1
  Se  Se24  1  0.36989350  0.87688514  0.51937596  1
  Se  Se25  1  0.86970231  0.87687166  0.51939318  1
  Se  Se26  1  0.12894951  0.37588576  0.48264949  1
  Se  Se27  1  0.62861900  0.37250336  0.48402927  1
  Se  Se28  1  0.09152392  0.62686540  0.63336022  1
  Se  Se29  1  0.59148242  0.62770290  0.63369941  1
  Se  Se30  1  0.35241316  0.11458129  0.59745373  1
  Se  Se31  1  0.84778389  0.11440435  0.59743276  1
  Se  Se32  1  0.09150812  0.87317667  0.63337769  1
  Se  Se33  1  0.59139132  0.87233482  0.63371617  1
  Se  Se34  1  0.35237762  0.38546747  0.59741165  1
  Se  Se35  1  0.84781195  0.38564856  0.59738750  1
  H  H36  1  0.57787421  0.24973921  0.69043235  1
