# generated using pymatgen
data_Cu24C(Se6O)2
_symmetry_space_group_name_H-M   'P 1'
_cell_length_a   8.09471283
_cell_length_b   8.09451676
_cell_length_c   26.54075200
_cell_angle_alpha   85.62693029
_cell_angle_beta   85.62705062
_cell_angle_gamma   59.99922007
_symmetry_Int_Tables_number   1
_chemical_formula_structural   Cu24C(Se6O)2
_chemical_formula_sum   'Cu24 Se12 C1 O2'
_cell_volume   1500.17856456
_cell_formula_units_Z   1
loop_
 _symmetry_equiv_pos_site_id
 _symmetry_equiv_pos_as_xyz
  1  'x, y, z'
loop_
 _atom_site_type_symbol
 _atom_site_label
 _atom_site_symmetry_multiplicity
 _atom_site_fract_x
 _atom_site_fract_y
 _atom_site_fract_z
 _atom_site_occupancy
  Cu  Cu0  1  0.26562200  0.26563000  0.40625100  1
  Cu  Cu1  1  0.26228869  0.77011267  0.40651917  1
  Cu  Cu2  1  0.76437832  0.26903178  0.40583569  1
  Cu  Cu3  1  0.76433957  0.77006588  0.40658805  1
  Cu  Cu4  1  0.10937300  0.10937800  0.34374900  1
  Cu  Cu5  1  0.10937400  0.60937800  0.34374900  1
  Cu  Cu6  1  0.60937400  0.10937800  0.34374900  1
  Cu  Cu7  1  0.60937400  0.60937800  0.34374900  1
  Cu  Cu8  1  0.06467443  0.08412763  0.54619093  1
  Cu  Cu9  1  0.06785920  0.60564771  0.54645480  1
  Cu  Cu10  1  0.56250798  0.07956634  0.54807021  1
  Cu  Cu11  1  0.58597164  0.56916694  0.54838229  1
  Cu  Cu12  1  0.42356055  0.40712451  0.46728384  1
  Cu  Cu13  1  0.43227053  0.90805033  0.46705028  1
  Cu  Cu14  1  0.93118477  0.40278104  0.46803582  1
  Cu  Cu15  1  0.93394381  0.90345070  0.46965145  1
  Cu  Cu16  1  0.39549490  0.39443913  0.62081258  1
  Cu  Cu17  1  0.39871086  0.91142755  0.61937162  1
  Cu  Cu18  1  0.88213312  0.39353755  0.62090053  1
  Cu  Cu19  1  0.91127978  0.88642091  0.61374524  1
  Cu  Cu20  1  0.21623847  0.25594706  0.58791498  1
  Cu  Cu21  1  0.25101227  0.73774832  0.58946481  1
  Cu  Cu22  1  0.72812566  0.23144317  0.58919305  1
  Cu  Cu23  1  0.73334824  0.73541571  0.58986637  1
  Se  Se24  1  0.43749700  0.43750300  0.37500000  1
  Se  Se25  1  0.43749700  0.93750300  0.37500000  1
  Se  Se26  1  0.93749700  0.43750300  0.37500000  1
  Se  Se27  1  0.93749700  0.93750300  0.37500000  1
  Se  Se28  1  0.26163943  0.22645857  0.49927085  1
  Se  Se29  1  0.26705418  0.72814433  0.49935867  1
  Se  Se30  1  0.75543036  0.23229777  0.49904544  1
  Se  Se31  1  0.76028643  0.72687967  0.49945145  1
  Se  Se32  1  0.06557368  0.05308578  0.64030382  1
  Se  Se33  1  0.05881210  0.54649988  0.63989948  1
  Se  Se34  1  0.57651633  0.05268804  0.64191309  1
  Se  Se35  1  0.54991802  0.56459079  0.64346589  1
  C  C36  1  0.86588643  0.92967780  0.74462793  1
  O  O37  1  0.77267939  0.09611528  0.74449367  1
  O  O38  1  0.95953972  0.76272205  0.74395803  1
