# generated using pymatgen
data_Cu24HCSe12O
_symmetry_space_group_name_H-M   'P 1'
_cell_length_a   8.09471283
_cell_length_b   8.09451676
_cell_length_c   26.54075200
_cell_angle_alpha   85.62693029
_cell_angle_beta   85.62705062
_cell_angle_gamma   59.99922007
_symmetry_Int_Tables_number   1
_chemical_formula_structural   Cu24HCSe12O
_chemical_formula_sum   'Cu24 H1 Se12 C1 O1'
_cell_volume   1500.17856456
_cell_formula_units_Z   1
loop_
 _symmetry_equiv_pos_site_id
 _symmetry_equiv_pos_as_xyz
  1  'x, y, z'
loop_
 _atom_site_type_symbol
 _atom_site_label
 _atom_site_symmetry_multiplicity
 _atom_site_fract_x
 _atom_site_fract_y
 _atom_site_fract_z
 _atom_site_occupancy
  Cu  Cu0  1  0.26562200  0.26563000  0.40625100  1
  Cu  Cu1  1  0.26843999  0.76381986  0.40762120  1
  Cu  Cu2  1  0.76464456  0.26824932  0.40698752  1
  Cu  Cu3  1  0.76457559  0.76342114  0.40756011  1
  Cu  Cu4  1  0.10937300  0.10937800  0.34374900  1
  Cu  Cu5  1  0.10937400  0.60937800  0.34374900  1
  Cu  Cu6  1  0.60937400  0.10937800  0.34374900  1
  Cu  Cu7  1  0.60937400  0.60937800  0.34374900  1
  Cu  Cu8  1  0.07520101  0.07134387  0.55105889  1
  Cu  Cu9  1  0.07834772  0.56610154  0.55158339  1
  Cu  Cu10  1  0.57848327  0.07266819  0.55189767  1
  Cu  Cu11  1  0.57863572  0.57684956  0.53432773  1
  Cu  Cu12  1  0.42468709  0.42539564  0.46935838  1
  Cu  Cu13  1  0.42453441  0.91387617  0.46941399  1
  Cu  Cu14  1  0.91027355  0.42718843  0.46970351  1
  Cu  Cu15  1  0.92466454  0.92003395  0.46430831  1
  Cu  Cu16  1  0.38978327  0.38884882  0.62300178  1
  Cu  Cu17  1  0.39317843  0.89946158  0.62396093  1
  Cu  Cu18  1  0.90979131  0.39029112  0.62372634  1
  Cu  Cu19  1  0.89364305  0.90141010  0.61634118  1
  Cu  Cu20  1  0.23910148  0.22659841  0.58945332  1
  Cu  Cu21  1  0.24345105  0.72720122  0.59049228  1
  Cu  Cu22  1  0.73040125  0.24800325  0.58959530  1
  Cu  Cu23  1  0.73233613  0.72708632  0.59035483  1
  Se  Se24  1  0.43749700  0.43750300  0.37500000  1
  Se  Se25  1  0.43749700  0.93750300  0.37500000  1
  Se  Se26  1  0.93749700  0.43750300  0.37500000  1
  Se  Se27  1  0.93749700  0.93750300  0.37500000  1
  Se  Se28  1  0.24583287  0.25293898  0.49987442  1
  Se  Se29  1  0.23969541  0.75502832  0.50069329  1
  Se  Se30  1  0.75341673  0.23821630  0.50002701  1
  Se  Se31  1  0.75230194  0.75775152  0.50059206  1
  Se  Se32  1  0.05776281  0.05710522  0.64546973  1
  Se  Se33  1  0.05535332  0.56725433  0.64574641  1
  Se  Se34  1  0.55956657  0.05635124  0.64601020  1
  Se  Se35  1  0.56310250  0.55653685  0.63316792  1
  C  C36  1  0.63049078  0.54624562  0.77371052  1
  H  H37  1  0.62082248  0.53208103  0.81626902  1
  O  O38  1  0.50017901  0.59644610  0.74732662  1
