# generated using pymatgen
data_Ni27H
_symmetry_space_group_name_H-M   'P 1'
_cell_length_a   7.33151102
_cell_length_b   7.33233304
_cell_length_c   24.19342100
_cell_angle_alpha   89.99505366
_cell_angle_beta   89.99585023
_cell_angle_gamma   89.99674115
_symmetry_Int_Tables_number   1
_chemical_formula_structural   Ni27H
_chemical_formula_sum   'Ni27 H1'
_cell_volume   1300.56766926
_cell_formula_units_Z   1
loop_
 _symmetry_equiv_pos_site_id
 _symmetry_equiv_pos_as_xyz
  1  'x, y, z'
loop_
 _atom_site_type_symbol
 _atom_site_label
 _atom_site_symmetry_multiplicity
 _atom_site_fract_x
 _atom_site_fract_y
 _atom_site_fract_z
 _atom_site_occupancy
  Ni  Ni0  1  0.99999858  0.33384160  0.53590250  1
  Ni  Ni1  1  0.99999783  0.66610161  0.53588896  1
  Ni  Ni2  1  0.99996528  0.99996151  0.53602326  1
  Ni  Ni3  1  0.33358141  0.33357871  0.53684752  1
  Ni  Ni4  1  0.33358464  0.66641179  0.53683267  1
  Ni  Ni5  1  0.33384492  0.99999473  0.53589776  1
  Ni  Ni6  1  0.66641770  0.33358299  0.53683612  1
  Ni  Ni7  1  0.66641933  0.66641327  0.53682019  1
  Ni  Ni8  1  0.66610591  0.99999454  0.53588606  1
  Ni  Ni9  1  0.00000100  0.33333200  0.39285700  1
  Ni  Ni10  1  0.00000100  0.66666500  0.39285700  1
  Ni  Ni11  1  0.00000100  0.99999800  0.39285700  1
  Ni  Ni12  1  0.33333400  0.33333200  0.39285700  1
  Ni  Ni13  1  0.33333400  0.66666500  0.39285700  1
  Ni  Ni14  1  0.33333400  0.99999800  0.39285700  1
  Ni  Ni15  1  0.66666800  0.33333200  0.39285700  1
  Ni  Ni16  1  0.66666800  0.66666500  0.39285700  1
  Ni  Ni17  1  0.66666800  0.99999800  0.39285700  1
  Ni  Ni18  1  0.16632800  0.16634800  0.46441800  1
  Ni  Ni19  1  0.16628100  0.49997400  0.46434900  1
  Ni  Ni20  1  0.16633600  0.83365900  0.46442600  1
  Ni  Ni21  1  0.49999100  0.16630200  0.46434900  1
  Ni  Ni22  1  0.49999100  0.49997600  0.46429200  1
  Ni  Ni23  1  0.49999100  0.83371200  0.46435700  1
  Ni  Ni24  1  0.83367200  0.16635600  0.46442500  1
  Ni  Ni25  1  0.83372600  0.49997700  0.46435600  1
  Ni  Ni26  1  0.83367800  0.83366700  0.46443200  1
  H  H27  1  0.49999760  0.49999287  0.56336659  1
