# generated using pymatgen
data_Mo12HSe24
_symmetry_space_group_name_H-M   'P 1'
_cell_length_a   6.57932100
_cell_length_b   13.15865201
_cell_length_c   25.69278231
_cell_angle_alpha   90.00141744
_cell_angle_beta   86.32845510
_cell_angle_gamma   89.99834975
_symmetry_Int_Tables_number   1
_chemical_formula_structural   Mo12HSe24
_chemical_formula_sum   'Mo12 H1 Se24'
_cell_volume   2219.78712514
_cell_formula_units_Z   1
loop_
 _symmetry_equiv_pos_site_id
 _symmetry_equiv_pos_as_xyz
  1  'x, y, z'
loop_
 _atom_site_type_symbol
 _atom_site_label
 _atom_site_symmetry_multiplicity
 _atom_site_fract_x
 _atom_site_fract_y
 _atom_site_fract_z
 _atom_site_occupancy
  Mo  Mo0  1  0.40730700  0.75010700  0.37035000  1
  Mo  Mo1  1  0.90730700  0.75010700  0.37035000  1
  Mo  Mo2  1  0.14824900  0.24988800  0.40742800  1
  Mo  Mo3  1  0.64824900  0.24988800  0.40742800  1
  Mo  Mo4  1  0.12928603  0.75007079  0.48146687  1
  Mo  Mo5  1  0.62928096  0.75007042  0.48147916  1
  Mo  Mo6  1  0.36126643  0.24997458  0.52390542  1
  Mo  Mo7  1  0.87621392  0.24997266  0.52392984  1
  Mo  Mo8  1  0.35152964  0.75002559  0.59435051  1
  Mo  Mo9  1  0.85117011  0.75002184  0.59435032  1
  Mo  Mo10  1  0.09487963  0.25002190  0.61877510  1
  Mo  Mo11  1  0.59449813  0.25002661  0.62121610  1
  Se  Se12  1  0.14805500  0.62304600  0.40738500  1
  Se  Se13  1  0.64805500  0.62304600  0.40738500  1
  Se  Se14  1  0.40751700  0.12282800  0.37038900  1
  Se  Se15  1  0.90751700  0.12282800  0.37038900  1
  Se  Se16  1  0.14804000  0.87717700  0.40738900  1
  Se  Se17  1  0.64804000  0.87717700  0.40738900  1
  Se  Se18  1  0.40750200  0.37696000  0.37039300  1
  Se  Se19  1  0.90750200  0.37696000  0.37039300  1
  Se  Se20  1  0.36980859  0.62369572  0.51971005  1
  Se  Se21  1  0.86975033  0.62369582  0.51970845  1
  Se  Se22  1  0.12912758  0.12370545  0.48266990  1
  Se  Se23  1  0.62872070  0.12760599  0.48432591  1
  Se  Se24  1  0.36978672  0.87641575  0.51973093  1
  Se  Se25  1  0.86972755  0.87641378  0.51973112  1
  Se  Se26  1  0.12912001  0.37618435  0.48263109  1
  Se  Se27  1  0.62871688  0.37228017  0.48428767  1
  Se  Se28  1  0.09147332  0.62627506  0.63381099  1
  Se  Se29  1  0.59152384  0.62610357  0.63361877  1
  Se  Se30  1  0.35304567  0.11330351  0.59766459  1
  Se  Se31  1  0.84763162  0.11324711  0.59765450  1
  Se  Se32  1  0.09145105  0.87376425  0.63382789  1
  Se  Se33  1  0.59149999  0.87393096  0.63363715  1
  Se  Se34  1  0.35303956  0.38671424  0.59762927  1
  Se  Se35  1  0.84762252  0.38677054  0.59761793  1
  H  H36  1  0.57776409  0.24996925  0.68969546  1
