# generated using pymatgen
data_Cu27HCO
_symmetry_space_group_name_H-M   'P 1'
_cell_length_a   7.56931204
_cell_length_b   6.17958932
_cell_length_c   26.20755800
_cell_angle_alpha   89.93253853
_cell_angle_beta   90.00615399
_cell_angle_gamma   90.00637696
_symmetry_Int_Tables_number   1
_chemical_formula_structural   Cu27HCO
_chemical_formula_sum   'Cu27 H1 C1 O1'
_cell_volume   1225.86394768
_cell_formula_units_Z   1
loop_
 _symmetry_equiv_pos_site_id
 _symmetry_equiv_pos_as_xyz
  1  'x, y, z'
loop_
 _atom_site_type_symbol
 _atom_site_label
 _atom_site_symmetry_multiplicity
 _atom_site_fract_x
 _atom_site_fract_y
 _atom_site_fract_z
 _atom_site_occupancy
  Cu  Cu0  1  0.00000100  0.70833300  0.43055600  1
  Cu  Cu1  1  0.33333400  0.70833300  0.43055600  1
  Cu  Cu2  1  0.66666700  0.70833300  0.43055600  1
  Cu  Cu3  1  0.00000100  0.04166600  0.48611100  1
  Cu  Cu4  1  0.33333400  0.04166600  0.48611100  1
  Cu  Cu5  1  0.66666700  0.04166600  0.48611100  1
  Cu  Cu6  1  0.99943624  0.37333599  0.54224398  1
  Cu  Cu7  1  0.33504622  0.37245377  0.54363352  1
  Cu  Cu8  1  0.66493077  0.37480175  0.54350842  1
  Cu  Cu9  1  0.16666700  0.37500000  0.45833300  1
  Cu  Cu10  1  0.50000000  0.37500000  0.45833300  1
  Cu  Cu11  1  0.83333400  0.37500000  0.45833300  1
  Cu  Cu12  1  0.16705577  0.70837787  0.51410324  1
  Cu  Cu13  1  0.50001872  0.70838009  0.51414100  1
  Cu  Cu14  1  0.83322686  0.70951626  0.51429655  1
  Cu  Cu15  1  0.00039511  0.70245161  0.59977874  1
  Cu  Cu16  1  0.33381564  0.69899511  0.60002726  1
  Cu  Cu17  1  0.66694779  0.70808027  0.60028632  1
  Cu  Cu18  1  0.99813964  0.04069011  0.65065595  1
  Cu  Cu19  1  0.32742678  0.03325199  0.64967063  1
  Cu  Cu20  1  0.66446470  0.05063979  0.65188713  1
  Cu  Cu21  1  0.16611107  0.03455970  0.56919926  1
  Cu  Cu22  1  0.49905033  0.03517283  0.56975376  1
  Cu  Cu23  1  0.83159904  0.03617442  0.56988605  1
  Cu  Cu24  1  0.16548238  0.37124294  0.62664379  1
  Cu  Cu25  1  0.49871805  0.37840631  0.63182945  1
  Cu  Cu26  1  0.83698078  0.37557248  0.62578219  1
  C  C27  1  0.56468172  0.36294814  0.70467001  1
  H  H28  1  0.46099407  0.29221704  0.73031181  1
  O  O29  1  0.68241473  0.47056287  0.72629306  1
