# generated using pymatgen
data_Cu24HSe12
_symmetry_space_group_name_H-M   'P 1'
_cell_length_a   8.09471283
_cell_length_b   8.09451676
_cell_length_c   26.54075200
_cell_angle_alpha   85.62693029
_cell_angle_beta   85.62705062
_cell_angle_gamma   59.99922007
_symmetry_Int_Tables_number   1
_chemical_formula_structural   Cu24HSe12
_chemical_formula_sum   'Cu24 H1 Se12'
_cell_volume   1500.17856456
_cell_formula_units_Z   1
loop_
 _symmetry_equiv_pos_site_id
 _symmetry_equiv_pos_as_xyz
  1  'x, y, z'
loop_
 _atom_site_type_symbol
 _atom_site_label
 _atom_site_symmetry_multiplicity
 _atom_site_fract_x
 _atom_site_fract_y
 _atom_site_fract_z
 _atom_site_occupancy
  Cu  Cu0  1  0.26562200  0.26563000  0.40625100  1
  Cu  Cu1  1  0.26702173  0.76342312  0.41260409  1
  Cu  Cu2  1  0.76341180  0.26705576  0.41260068  1
  Cu  Cu3  1  0.76370234  0.76369317  0.41247476  1
  Cu  Cu4  1  0.10937300  0.10937800  0.34374900  1
  Cu  Cu5  1  0.10937400  0.60937800  0.34374900  1
  Cu  Cu6  1  0.60937400  0.10937800  0.34374900  1
  Cu  Cu7  1  0.60937400  0.60937800  0.34374900  1
  Cu  Cu8  1  0.08763364  0.08778180  0.54530748  1
  Cu  Cu9  1  0.09061872  0.54966296  0.54511545  1
  Cu  Cu10  1  0.54966976  0.09075582  0.54513208  1
  Cu  Cu11  1  0.57771609  0.57771663  0.54264517  1
  Cu  Cu12  1  0.42882827  0.42883533  0.47076635  1
  Cu  Cu13  1  0.43239187  0.90156187  0.47077965  1
  Cu  Cu14  1  0.90164752  0.43239187  0.47080117  1
  Cu  Cu15  1  0.92398274  0.92395150  0.46430056  1
  Cu  Cu16  1  0.40801857  0.40807587  0.60687237  1
  Cu  Cu17  1  0.40895084  0.87969390  0.60697533  1
  Cu  Cu18  1  0.87969411  0.40897719  0.60696763  1
  Cu  Cu19  1  0.88778795  0.88781477  0.67304912  1
  Cu  Cu20  1  0.23375436  0.23375910  0.59523364  1
  Cu  Cu21  1  0.13327275  0.78428622  0.59629026  1
  Cu  Cu22  1  0.78420860  0.13341374  0.59631110  1
  Cu  Cu23  1  0.78565552  0.78569881  0.59586186  1
  Se  Se24  1  0.43749700  0.43750300  0.37500000  1
  Se  Se25  1  0.43749700  0.93750300  0.37500000  1
  Se  Se26  1  0.93749700  0.43750300  0.37500000  1
  Se  Se27  1  0.93749700  0.93750300  0.37500000  1
  Se  Se28  1  0.24925857  0.24917272  0.49690355  1
  Se  Se29  1  0.23991817  0.75341164  0.50442414  1
  Se  Se30  1  0.75343320  0.23991100  0.50441712  1
  Se  Se31  1  0.75541511  0.75546495  0.50434734  1
  Se  Se32  1  0.06606602  0.06605118  0.64190581  1
  Se  Se33  1  0.06571750  0.54702972  0.64191832  1
  Se  Se34  1  0.54700628  0.06572990  0.64192345  1
  Se  Se35  1  0.56027989  0.56026466  0.63652752  1
  H  H36  1  0.87887890  0.87892187  0.73080705  1
