# generated using pymatgen
data_Cu27HCO2
_symmetry_space_group_name_H-M   'P 1'
_cell_length_a   7.56931204
_cell_length_b   6.17958932
_cell_length_c   26.20755800
_cell_angle_alpha   89.93253853
_cell_angle_beta   90.00615399
_cell_angle_gamma   90.00637696
_symmetry_Int_Tables_number   1
_chemical_formula_structural   Cu27HCO2
_chemical_formula_sum   'Cu27 H1 C1 O2'
_cell_volume   1225.86394768
_cell_formula_units_Z   1
loop_
 _symmetry_equiv_pos_site_id
 _symmetry_equiv_pos_as_xyz
  1  'x, y, z'
loop_
 _atom_site_type_symbol
 _atom_site_label
 _atom_site_symmetry_multiplicity
 _atom_site_fract_x
 _atom_site_fract_y
 _atom_site_fract_z
 _atom_site_occupancy
  Cu  Cu0  1  0.00000100  0.70833300  0.43055600  1
  Cu  Cu1  1  0.33333400  0.70833300  0.43055600  1
  Cu  Cu2  1  0.66666700  0.70833300  0.43055600  1
  Cu  Cu3  1  0.00000100  0.04166600  0.48611100  1
  Cu  Cu4  1  0.33333400  0.04166600  0.48611100  1
  Cu  Cu5  1  0.66666700  0.04166600  0.48611100  1
  Cu  Cu6  1  0.00000891  0.37341810  0.54230881  1
  Cu  Cu7  1  0.33548622  0.37201955  0.54377419  1
  Cu  Cu8  1  0.66453412  0.37201880  0.54377324  1
  Cu  Cu9  1  0.16666700  0.37500000  0.45833300  1
  Cu  Cu10  1  0.50000000  0.37500000  0.45833300  1
  Cu  Cu11  1  0.83333400  0.37500000  0.45833300  1
  Cu  Cu12  1  0.16639970  0.70791860  0.51386381  1
  Cu  Cu13  1  0.50001053  0.70823169  0.51385231  1
  Cu  Cu14  1  0.83361952  0.70792122  0.51386587  1
  Cu  Cu15  1  0.00002988  0.70098095  0.60037328  1
  Cu  Cu16  1  0.33293462  0.70051906  0.59887081  1
  Cu  Cu17  1  0.66711354  0.70052062  0.59887266  1
  Cu  Cu18  1  0.00000707  0.04156669  0.65055643  1
  Cu  Cu19  1  0.32755883  0.03245957  0.64983683  1
  Cu  Cu20  1  0.67245533  0.03247989  0.64983468  1
  Cu  Cu21  1  0.16681383  0.03401793  0.56924033  1
  Cu  Cu22  1  0.50000354  0.03440921  0.56994444  1
  Cu  Cu23  1  0.83319623  0.03401831  0.56924067  1
  Cu  Cu24  1  0.16515842  0.37163869  0.62648982  1
  Cu  Cu25  1  0.50002043  0.37450140  0.63230632  1
  Cu  Cu26  1  0.83488149  0.37164008  0.62649084  1
  C  C27  1  0.50003173  0.38659807  0.70682772  1
  O  O28  1  0.50017041  0.54829857  0.73430248  1
  O  O29  1  0.49988721  0.18595080  0.73181085  1
  H  H30  1  0.49996347  0.21229700  0.76939986  1
