# generated using pymatgen
data_Cu27HCO2
_symmetry_space_group_name_H-M   'P 1'
_cell_length_a   7.56931204
_cell_length_b   6.17958932
_cell_length_c   26.20755800
_cell_angle_alpha   89.93253853
_cell_angle_beta   90.00615399
_cell_angle_gamma   90.00637696
_symmetry_Int_Tables_number   1
_chemical_formula_structural   Cu27HCO2
_chemical_formula_sum   'Cu27 H1 C1 O2'
_cell_volume   1225.86394768
_cell_formula_units_Z   1
loop_
 _symmetry_equiv_pos_site_id
 _symmetry_equiv_pos_as_xyz
  1  'x, y, z'
loop_
 _atom_site_type_symbol
 _atom_site_label
 _atom_site_symmetry_multiplicity
 _atom_site_fract_x
 _atom_site_fract_y
 _atom_site_fract_z
 _atom_site_occupancy
  Cu  Cu0  1  0.00000100  0.70833300  0.43055600  1
  Cu  Cu1  1  0.33333400  0.70833300  0.43055600  1
  Cu  Cu2  1  0.66666700  0.70833300  0.43055600  1
  Cu  Cu3  1  0.00000100  0.04166600  0.48611100  1
  Cu  Cu4  1  0.33333400  0.04166600  0.48611100  1
  Cu  Cu5  1  0.66666700  0.04166600  0.48611100  1
  Cu  Cu6  1  0.00002252  0.37277834  0.54185198  1
  Cu  Cu7  1  0.33455865  0.37469725  0.54334069  1
  Cu  Cu8  1  0.66548208  0.37469253  0.54333803  1
  Cu  Cu9  1  0.16666700  0.37500000  0.45833300  1
  Cu  Cu10  1  0.50000000  0.37500000  0.45833300  1
  Cu  Cu11  1  0.83333400  0.37500000  0.45833300  1
  Cu  Cu12  1  0.16650264  0.70962230  0.51337134  1
  Cu  Cu13  1  0.50001270  0.71093915  0.51350875  1
  Cu  Cu14  1  0.83352839  0.70961818  0.51337060  1
  Cu  Cu15  1  0.00003869  0.70291825  0.59913408  1
  Cu  Cu16  1  0.33262438  0.70723662  0.59956958  1
  Cu  Cu17  1  0.66745295  0.70722786  0.59956426  1
  Cu  Cu18  1  0.00000938  0.04019761  0.65133869  1
  Cu  Cu19  1  0.32860431  0.03939075  0.65341899  1
  Cu  Cu20  1  0.67142169  0.03942346  0.65340713  1
  Cu  Cu21  1  0.16863638  0.03635994  0.57075619  1
  Cu  Cu22  1  0.50001984  0.03790123  0.57122930  1
  Cu  Cu23  1  0.83141206  0.03636101  0.57075027  1
  Cu  Cu24  1  0.16414294  0.37526438  0.62562182  1
  Cu  Cu25  1  0.50004492  0.38577245  0.62816314  1
  Cu  Cu26  1  0.83592207  0.37525994  0.62562289  1
  C  C27  1  0.50002982  0.30737691  0.74853132  1
  O  O28  1  0.50003465  0.19549901  0.78680589  1
  O  O29  1  0.49988094  0.22962105  0.70092557  1
  H  H30  1  0.50016410  0.48760529  0.74998237  1
