# generated using pymatgen
data_Cu24C(Se6O)2
_symmetry_space_group_name_H-M   'P 1'
_cell_length_a   8.09471283
_cell_length_b   8.09451676
_cell_length_c   26.54075200
_cell_angle_alpha   85.62693029
_cell_angle_beta   85.62705062
_cell_angle_gamma   59.99922007
_symmetry_Int_Tables_number   1
_chemical_formula_structural   Cu24C(Se6O)2
_chemical_formula_sum   'Cu24 Se12 C1 O2'
_cell_volume   1500.17856456
_cell_formula_units_Z   1
loop_
 _symmetry_equiv_pos_site_id
 _symmetry_equiv_pos_as_xyz
  1  'x, y, z'
loop_
 _atom_site_type_symbol
 _atom_site_label
 _atom_site_symmetry_multiplicity
 _atom_site_fract_x
 _atom_site_fract_y
 _atom_site_fract_z
 _atom_site_occupancy
  Cu  Cu0  1  0.26562200  0.26563000  0.40625100  1
  Cu  Cu1  1  0.26562537  0.76811193  0.40742333  1
  Cu  Cu2  1  0.76441789  0.26952218  0.40753358  1
  Cu  Cu3  1  0.76220503  0.76795691  0.40706482  1
  Cu  Cu4  1  0.10937300  0.10937800  0.34374900  1
  Cu  Cu5  1  0.10937400  0.60937800  0.34374900  1
  Cu  Cu6  1  0.60937400  0.10937800  0.34374900  1
  Cu  Cu7  1  0.60937400  0.60937800  0.34374900  1
  Cu  Cu8  1  0.07590527  0.09084137  0.55246421  1
  Cu  Cu9  1  0.05495421  0.59396570  0.55380177  1
  Cu  Cu10  1  0.57486947  0.08354272  0.55232481  1
  Cu  Cu11  1  0.56886942  0.58236799  0.53608760  1
  Cu  Cu12  1  0.41820058  0.41479973  0.46857113  1
  Cu  Cu13  1  0.42974236  0.90270006  0.46913677  1
  Cu  Cu14  1  0.91027603  0.41619738  0.46895254  1
  Cu  Cu15  1  0.92639415  0.91881584  0.46466744  1
  Cu  Cu16  1  0.40175197  0.39722141  0.61998628  1
  Cu  Cu17  1  0.37513631  0.91689227  0.61953432  1
  Cu  Cu18  1  0.91005344  0.39239394  0.62051916  1
  Cu  Cu19  1  0.88293960  0.89210212  0.61911864  1
  Cu  Cu20  1  0.23809028  0.25121714  0.58839372  1
  Cu  Cu21  1  0.22585925  0.74454903  0.59092780  1
  Cu  Cu22  1  0.73926407  0.24217363  0.59056237  1
  Cu  Cu23  1  0.71280758  0.73932418  0.58956061  1
  Se  Se24  1  0.43749700  0.43750300  0.37500000  1
  Se  Se25  1  0.43749700  0.93750300  0.37500000  1
  Se  Se26  1  0.93749700  0.43750300  0.37500000  1
  Se  Se27  1  0.93749700  0.93750300  0.37500000  1
  Se  Se28  1  0.24887725  0.22983908  0.49925460  1
  Se  Se29  1  0.24424595  0.73733902  0.50066169  1
  Se  Se30  1  0.74745143  0.23180970  0.50061958  1
  Se  Se31  1  0.76412763  0.73954225  0.49988915  1
  Se  Se32  1  0.04453528  0.05271235  0.64581112  1
  Se  Se33  1  0.06870642  0.55137487  0.64651932  1
  Se  Se34  1  0.54967924  0.05796361  0.64596246  1
  Se  Se35  1  0.56410636  0.56414145  0.63304012  1
  C  C36  1  0.55676150  0.55493977  0.75111817  1
  O  O37  1  0.47149966  0.72246181  0.74960256  1
  O  O38  1  0.64210067  0.38778563  0.75204561  1
