# generated using pymatgen
data_Mo12HSe24
_symmetry_space_group_name_H-M   'P 1'
_cell_length_a   6.57932100
_cell_length_b   13.15865201
_cell_length_c   25.69278231
_cell_angle_alpha   90.00141744
_cell_angle_beta   86.32845510
_cell_angle_gamma   89.99834975
_symmetry_Int_Tables_number   1
_chemical_formula_structural   Mo12HSe24
_chemical_formula_sum   'Mo12 H1 Se24'
_cell_volume   2219.78712514
_cell_formula_units_Z   1
loop_
 _symmetry_equiv_pos_site_id
 _symmetry_equiv_pos_as_xyz
  1  'x, y, z'
loop_
 _atom_site_type_symbol
 _atom_site_label
 _atom_site_symmetry_multiplicity
 _atom_site_fract_x
 _atom_site_fract_y
 _atom_site_fract_z
 _atom_site_occupancy
  Mo  Mo0  1  0.40730700  0.75010700  0.37035000  1
  Mo  Mo1  1  0.90730700  0.75010700  0.37035000  1
  Mo  Mo2  1  0.14824900  0.24988800  0.40742800  1
  Mo  Mo3  1  0.64824900  0.24988800  0.40742800  1
  Mo  Mo4  1  0.12854628  0.75007695  0.48120760  1
  Mo  Mo5  1  0.63020101  0.75007595  0.48120822  1
  Mo  Mo6  1  0.36927739  0.24996892  0.52323273  1
  Mo  Mo7  1  0.87001726  0.24997305  0.52164334  1
  Mo  Mo8  1  0.35151012  0.75003650  0.59351382  1
  Mo  Mo9  1  0.85173313  0.75004527  0.59347713  1
  Mo  Mo10  1  0.14108031  0.25001214  0.62377771  1
  Mo  Mo11  1  0.54764424  0.25001555  0.62398384  1
  Se  Se12  1  0.14805500  0.62304600  0.40738500  1
  Se  Se13  1  0.64805500  0.62304600  0.40738500  1
  Se  Se14  1  0.40751700  0.12282800  0.37038900  1
  Se  Se15  1  0.90751700  0.12282800  0.37038900  1
  Se  Se16  1  0.14804000  0.87717700  0.40738900  1
  Se  Se17  1  0.64804000  0.87717700  0.40738900  1
  Se  Se18  1  0.40750200  0.37696000  0.37039300  1
  Se  Se19  1  0.90750200  0.37696000  0.37039300  1
  Se  Se20  1  0.36995517  0.62370004  0.51915396  1
  Se  Se21  1  0.86980555  0.62284646  0.51965033  1
  Se  Se22  1  0.12689678  0.12481346  0.48274147  1
  Se  Se23  1  0.63211816  0.12490585  0.48279050  1
  Se  Se24  1  0.36993452  0.87641800  0.51917420  1
  Se  Se25  1  0.86978342  0.87727341  0.51966665  1
  Se  Se26  1  0.12689390  0.37508242  0.48269876  1
  Se  Se27  1  0.63210997  0.37498962  0.48274796  1
  Se  Se28  1  0.09218538  0.62724151  0.63355508  1
  Se  Se29  1  0.59095780  0.62753965  0.63373531  1
  Se  Se30  1  0.35306179  0.10511556  0.59036777  1
  Se  Se31  1  0.84960666  0.12807292  0.60247963  1
  Se  Se32  1  0.09216407  0.87282821  0.63356737  1
  Se  Se33  1  0.59093382  0.87253150  0.63374681  1
  Se  Se34  1  0.35304706  0.39488045  0.59032945  1
  Se  Se35  1  0.84960397  0.37193723  0.60244260  1
  H  H36  1  0.33109052  0.25003771  0.67503022  1
