# generated using pymatgen
data_HW27
_symmetry_space_group_name_H-M   'P 1'
_cell_length_a   8.18352602
_cell_length_b   8.18352418
_cell_length_c   22.27285200
_cell_angle_alpha   89.99630328
_cell_angle_beta   89.99630328
_cell_angle_gamma   109.47270263
_symmetry_Int_Tables_number   1
_chemical_formula_structural   HW27
_chemical_formula_sum   'H1 W27'
_cell_volume   1406.29500171
_cell_formula_units_Z   1
loop_
 _symmetry_equiv_pos_site_id
 _symmetry_equiv_pos_as_xyz
  1  'x, y, z'
loop_
 _atom_site_type_symbol
 _atom_site_label
 _atom_site_symmetry_multiplicity
 _atom_site_fract_x
 _atom_site_fract_y
 _atom_site_fract_z
 _atom_site_occupancy
  W  W0  1  0.99951194  0.33370660  0.59744439  1
  W  W1  1  0.00078885  0.66765287  0.59753359  1
  W  W2  1  0.99910373  0.99910377  0.59689014  1
  W  W3  1  0.33411967  0.33411967  0.59688872  1
  W  W4  1  0.33242534  0.66556203  0.59753274  1
  W  W5  1  0.33370654  0.99951196  0.59744439  1
  W  W6  1  0.66556197  0.33242545  0.59753276  1
  W  W7  1  0.66661012  0.66661014  0.60362989  1
  W  W8  1  0.66765280  0.00078900  0.59753362  1
  W  W9  1  0.16664032  0.16664033  0.49884797  1
  W  W10  1  0.16626903  0.50006696  0.49874045  1
  W  W11  1  0.16700988  0.83321583  0.49874127  1
  W  W12  1  0.50006690  0.16626907  0.49874044  1
  W  W13  1  0.49871741  0.49871744  0.49813964  1
  W  W14  1  0.50080944  0.83247048  0.49936952  1
  W  W15  1  0.83321583  0.16700983  0.49874129  1
  W  W16  1  0.83247046  0.50080946  0.49936949  1
  W  W17  1  0.83456154  0.83456157  0.49814188  1
  W  W18  1  0.00000000  0.33333300  0.40000000  1
  W  W19  1  0.00000000  0.66666700  0.40000000  1
  W  W20  1  0.00000000  0.00000000  0.40000000  1
  W  W21  1  0.33333300  0.33333300  0.40000000  1
  W  W22  1  0.33333300  0.66666700  0.40000000  1
  W  W23  1  0.33333300  0.00000000  0.40000000  1
  W  W24  1  0.66666700  0.33333300  0.40000000  1
  W  W25  1  0.66666700  0.66666700  0.40000000  1
  W  W26  1  0.66666700  0.00000000  0.40000000  1
  H  H27  1  0.66661865  0.66661972  0.68240432  1
