# generated using pymatgen
data_Cu24H2CSe12O
_symmetry_space_group_name_H-M   'P 1'
_cell_length_a   8.09471283
_cell_length_b   8.09451676
_cell_length_c   26.54075200
_cell_angle_alpha   85.62693029
_cell_angle_beta   85.62705062
_cell_angle_gamma   59.99922007
_symmetry_Int_Tables_number   1
_chemical_formula_structural   Cu24H2CSe12O
_chemical_formula_sum   'Cu24 H2 Se12 C1 O1'
_cell_volume   1500.17856456
_cell_formula_units_Z   1
loop_
 _symmetry_equiv_pos_site_id
 _symmetry_equiv_pos_as_xyz
  1  'x, y, z'
loop_
 _atom_site_type_symbol
 _atom_site_label
 _atom_site_symmetry_multiplicity
 _atom_site_fract_x
 _atom_site_fract_y
 _atom_site_fract_z
 _atom_site_occupancy
  Cu  Cu0  1  0.26562200  0.26563000  0.40625100  1
  Cu  Cu1  1  0.26457985  0.76631944  0.40706310  1
  Cu  Cu2  1  0.76630042  0.26417226  0.40738132  1
  Cu  Cu3  1  0.76597148  0.76626642  0.40699272  1
  Cu  Cu4  1  0.10937300  0.10937800  0.34374900  1
  Cu  Cu5  1  0.10937400  0.60937800  0.34374900  1
  Cu  Cu6  1  0.60937400  0.10937800  0.34374900  1
  Cu  Cu7  1  0.60937400  0.60937800  0.34374900  1
  Cu  Cu8  1  0.07725406  0.07257997  0.54368680  1
  Cu  Cu9  1  0.08222624  0.57300856  0.54579108  1
  Cu  Cu10  1  0.56324616  0.08224123  0.54455603  1
  Cu  Cu11  1  0.58425242  0.57275714  0.55252749  1
  Cu  Cu12  1  0.42192089  0.41945197  0.46725125  1
  Cu  Cu13  1  0.42227216  0.92364199  0.46795462  1
  Cu  Cu14  1  0.91984939  0.42216496  0.46738395  1
  Cu  Cu15  1  0.92443536  0.92230754  0.46897522  1
  Cu  Cu16  1  0.39867786  0.39754997  0.61636631  1
  Cu  Cu17  1  0.40527774  0.88982213  0.61720208  1
  Cu  Cu18  1  0.87866597  0.40774011  0.61777414  1
  Cu  Cu19  1  0.90420169  0.89043621  0.63249467  1
  Cu  Cu20  1  0.22656692  0.23628901  0.58992684  1
  Cu  Cu21  1  0.22800657  0.73989751  0.59051621  1
  Cu  Cu22  1  0.74335442  0.21528527  0.59060691  1
  Cu  Cu23  1  0.74671652  0.74770641  0.58995314  1
  Se  Se24  1  0.43749700  0.43750300  0.37500000  1
  Se  Se25  1  0.43749700  0.93750300  0.37500000  1
  Se  Se26  1  0.93749700  0.43750300  0.37500000  1
  Se  Se27  1  0.93749700  0.93750300  0.37500000  1
  Se  Se28  1  0.24725810  0.25183277  0.49910038  1
  Se  Se29  1  0.25389601  0.74679278  0.50024364  1
  Se  Se30  1  0.74695869  0.25331820  0.50052196  1
  Se  Se31  1  0.74933191  0.74832948  0.50017972  1
  Se  Se32  1  0.06453269  0.06765662  0.63918871  1
  Se  Se33  1  0.06116545  0.55077582  0.64093017  1
  Se  Se34  1  0.55884816  0.06087975  0.63953581  1
  Se  Se35  1  0.54955335  0.56101348  0.64560697  1
  C  C36  1  0.88243901  0.88397690  0.76780210  1
  O  O37  1  0.86844225  0.90796822  0.72215789  1
  H  H38  1  0.95695234  0.73874623  0.78635324  1
  H  H39  1  0.82020403  0.00829964  0.79238108  1
