# generated using pymatgen
data_Cu24H2CSe12O
_symmetry_space_group_name_H-M   'P 1'
_cell_length_a   8.09471283
_cell_length_b   8.09451676
_cell_length_c   26.54075200
_cell_angle_alpha   85.62693029
_cell_angle_beta   85.62705062
_cell_angle_gamma   59.99922007
_symmetry_Int_Tables_number   1
_chemical_formula_structural   Cu24H2CSe12O
_chemical_formula_sum   'Cu24 H2 Se12 C1 O1'
_cell_volume   1500.17856456
_cell_formula_units_Z   1
loop_
 _symmetry_equiv_pos_site_id
 _symmetry_equiv_pos_as_xyz
  1  'x, y, z'
loop_
 _atom_site_type_symbol
 _atom_site_label
 _atom_site_symmetry_multiplicity
 _atom_site_fract_x
 _atom_site_fract_y
 _atom_site_fract_z
 _atom_site_occupancy
  Cu  Cu0  1  0.26562200  0.26563000  0.40625100  1
  Cu  Cu1  1  0.26681888  0.76370855  0.40713098  1
  Cu  Cu2  1  0.76330964  0.26645743  0.40739078  1
  Cu  Cu3  1  0.76292451  0.76384016  0.40917703  1
  Cu  Cu4  1  0.10937300  0.10937800  0.34374900  1
  Cu  Cu5  1  0.10937400  0.60937800  0.34374900  1
  Cu  Cu6  1  0.60937400  0.10937800  0.34374900  1
  Cu  Cu7  1  0.60937400  0.60937800  0.34374900  1
  Cu  Cu8  1  0.05373143  0.05049008  0.55036237  1
  Cu  Cu9  1  0.07925739  0.55456368  0.55200458  1
  Cu  Cu10  1  0.55467011  0.08756177  0.55227806  1
  Cu  Cu11  1  0.58075433  0.58867067  0.53974995  1
  Cu  Cu12  1  0.42424644  0.42350097  0.46905170  1
  Cu  Cu13  1  0.43213428  0.90896721  0.46913564  1
  Cu  Cu14  1  0.91905696  0.43012315  0.46893356  1
  Cu  Cu15  1  0.92137583  0.93150950  0.46579033  1
  Cu  Cu16  1  0.37690541  0.37113995  0.62066834  1
  Cu  Cu17  1  0.39986367  0.88877609  0.62560727  1
  Cu  Cu18  1  0.88674104  0.40902688  0.62601943  1
  Cu  Cu19  1  0.90631353  0.90663430  0.61694144  1
  Cu  Cu20  1  0.21133251  0.21425431  0.58783657  1
  Cu  Cu21  1  0.25405495  0.71051630  0.58996239  1
  Cu  Cu22  1  0.71555969  0.25582702  0.59030425  1
  Cu  Cu23  1  0.73325489  0.74192462  0.59193127  1
  Se  Se24  1  0.43749700  0.43750300  0.37500000  1
  Se  Se25  1  0.43749700  0.93750300  0.37500000  1
  Se  Se26  1  0.93749700  0.43750300  0.37500000  1
  Se  Se27  1  0.93749700  0.93750300  0.37500000  1
  Se  Se28  1  0.25832443  0.24958781  0.49960910  1
  Se  Se29  1  0.24615575  0.75513607  0.50015753  1
  Se  Se30  1  0.75530639  0.25296455  0.50044740  1
  Se  Se31  1  0.76032841  0.75640956  0.50187145  1
  Se  Se32  1  0.06169378  0.06930545  0.64493821  1
  Se  Se33  1  0.05051640  0.57294690  0.64562205  1
  Se  Se34  1  0.57349152  0.04422239  0.64578428  1
  Se  Se35  1  0.54751855  0.54919632  0.63911416  1
  C  C36  1  0.55811558  0.55392545  0.78992656  1
  O  O37  1  0.63685229  0.57301961  0.75059027  1
  H  H38  1  0.59195647  0.41035138  0.80647627  1
  H  H39  1  0.44920097  0.67937569  0.81108779  1
