# generated using pymatgen
data_Cu24HSe12
_symmetry_space_group_name_H-M   'P 1'
_cell_length_a   8.09471283
_cell_length_b   8.09451676
_cell_length_c   26.54075200
_cell_angle_alpha   85.62693029
_cell_angle_beta   85.62705062
_cell_angle_gamma   59.99922007
_symmetry_Int_Tables_number   1
_chemical_formula_structural   Cu24HSe12
_chemical_formula_sum   'Cu24 H1 Se12'
_cell_volume   1500.17856456
_cell_formula_units_Z   1
loop_
 _symmetry_equiv_pos_site_id
 _symmetry_equiv_pos_as_xyz
  1  'x, y, z'
loop_
 _atom_site_type_symbol
 _atom_site_label
 _atom_site_symmetry_multiplicity
 _atom_site_fract_x
 _atom_site_fract_y
 _atom_site_fract_z
 _atom_site_occupancy
  Cu  Cu0  1  0.26562200  0.26563000  0.40625100  1
  Cu  Cu1  1  0.26415001  0.78209290  0.40518913  1
  Cu  Cu2  1  0.76756198  0.27046335  0.40849090  1
  Cu  Cu3  1  0.77698276  0.76859600  0.41098197  1
  Cu  Cu4  1  0.10937300  0.10937800  0.34374900  1
  Cu  Cu5  1  0.10937400  0.60937800  0.34374900  1
  Cu  Cu6  1  0.60937400  0.10937800  0.34374900  1
  Cu  Cu7  1  0.60937400  0.60937800  0.34374900  1
  Cu  Cu8  1  0.00504555  0.17804532  0.55377865  1
  Cu  Cu9  1  0.05863494  0.59650444  0.56448825  1
  Cu  Cu10  1  0.52143723  0.17453818  0.55025600  1
  Cu  Cu11  1  0.64340998  0.50030316  0.55501194  1
  Cu  Cu12  1  0.45893199  0.38109924  0.46914692  1
  Cu  Cu13  1  0.29039481  0.95015418  0.48485257  1
  Cu  Cu14  1  0.88787879  0.42156521  0.47234781  1
  Cu  Cu15  1  0.87260812  0.83638669  0.49523792  1
  Cu  Cu16  1  0.39486826  0.45739016  0.60782456  1
  Cu  Cu17  1  0.48666135  0.69206381  0.63348587  1
  Cu  Cu18  1  0.85696859  0.46004270  0.62582988  1
  Cu  Cu19  1  0.92300640  0.86950969  0.62560718  1
  Cu  Cu20  1  0.21669446  0.25264541  0.60193539  1
  Cu  Cu21  1  0.24748589  0.79616091  0.56985357  1
  Cu  Cu22  1  0.73725728  0.22359987  0.61398799  1
  Cu  Cu23  1  0.69241372  0.80165938  0.57705730  1
  Se  Se24  1  0.43749700  0.43750300  0.37500000  1
  Se  Se25  1  0.43749700  0.93750300  0.37500000  1
  Se  Se26  1  0.93749700  0.43750300  0.37500000  1
  Se  Se27  1  0.93749700  0.93750300  0.37500000  1
  Se  Se28  1  0.22876698  0.25848054  0.50118287  1
  Se  Se29  1  0.21138666  0.69786773  0.49276403  1
  Se  Se30  1  0.78075420  0.17324361  0.49639477  1
  Se  Se31  1  0.64204933  0.74071355  0.49455511  1
  Se  Se32  1  0.13037988  0.00845612  0.63616408  1
  Se  Se33  1  0.09915456  0.53575913  0.65397738  1
  Se  Se34  1  0.57118941  0.04458468  0.63688329  1
  Se  Se35  1  0.65862132  0.52799565  0.70564332  1
  H  H36  1  0.70821273  0.66720355  0.72308864  1
