# generated using pymatgen
data_Mo12HSe24
_symmetry_space_group_name_H-M   'P 1'
_cell_length_a   6.57932100
_cell_length_b   13.15865201
_cell_length_c   25.69278231
_cell_angle_alpha   90.00141744
_cell_angle_beta   86.32845510
_cell_angle_gamma   89.99834975
_symmetry_Int_Tables_number   1
_chemical_formula_structural   Mo12HSe24
_chemical_formula_sum   'Mo12 H1 Se24'
_cell_volume   2219.78712514
_cell_formula_units_Z   1
loop_
 _symmetry_equiv_pos_site_id
 _symmetry_equiv_pos_as_xyz
  1  'x, y, z'
loop_
 _atom_site_type_symbol
 _atom_site_label
 _atom_site_symmetry_multiplicity
 _atom_site_fract_x
 _atom_site_fract_y
 _atom_site_fract_z
 _atom_site_occupancy
  Mo  Mo0  1  0.40730700  0.75010700  0.37035000  1
  Mo  Mo1  1  0.90730700  0.75010700  0.37035000  1
  Mo  Mo2  1  0.14824900  0.24988800  0.40742800  1
  Mo  Mo3  1  0.64824900  0.24988800  0.40742800  1
  Mo  Mo4  1  0.13060611  0.75007556  0.48124013  1
  Mo  Mo5  1  0.62822907  0.75007567  0.48123701  1
  Mo  Mo6  1  0.36890630  0.24996330  0.52543939  1
  Mo  Mo7  1  0.86893828  0.24996241  0.52529209  1
  Mo  Mo8  1  0.35123699  0.75004366  0.59513080  1
  Mo  Mo9  1  0.85128594  0.75004100  0.59494708  1
  Mo  Mo10  1  0.09549398  0.25000821  0.61929426  1
  Mo  Mo11  1  0.59472926  0.25000910  0.61929322  1
  Se  Se12  1  0.14805500  0.62304600  0.40738500  1
  Se  Se13  1  0.64805500  0.62304600  0.40738500  1
  Se  Se14  1  0.40751700  0.12282800  0.37038900  1
  Se  Se15  1  0.90751700  0.12282800  0.37038900  1
  Se  Se16  1  0.14804000  0.87717700  0.40738900  1
  Se  Se17  1  0.64804000  0.87717700  0.40738900  1
  Se  Se18  1  0.40750200  0.37696000  0.37039300  1
  Se  Se19  1  0.90750200  0.37696000  0.37039300  1
  Se  Se20  1  0.36971199  0.62318460  0.52031153  1
  Se  Se21  1  0.86992345  0.62444438  0.51942588  1
  Se  Se22  1  0.12939073  0.12615730  0.48362767  1
  Se  Se23  1  0.62929009  0.12615618  0.48362695  1
  Se  Se24  1  0.36969181  0.87693615  0.52032621  1
  Se  Se25  1  0.86990389  0.87567922  0.51944269  1
  Se  Se26  1  0.12938302  0.37372187  0.48359181  1
  Se  Se27  1  0.62928424  0.37372304  0.48359118  1
  Se  Se28  1  0.08587911  0.62589265  0.63434244  1
  Se  Se29  1  0.59701824  0.62589396  0.63434884  1
  Se  Se30  1  0.35058665  0.11206831  0.59766073  1
  Se  Se31  1  0.85064017  0.11214769  0.59745897  1
  Se  Se32  1  0.08585972  0.87417994  0.63435603  1
  Se  Se33  1  0.59700060  0.87417959  0.63436199  1
  Se  Se34  1  0.35057950  0.38792525  0.59762126  1
  Se  Se35  1  0.85063399  0.38784551  0.59741998  1
  H  H36  1  0.33424453  0.75006176  0.66310200  1
