# generated using pymatgen
data_Cu24H2CSe12O
_symmetry_space_group_name_H-M   'P 1'
_cell_length_a   8.09471283
_cell_length_b   8.09451676
_cell_length_c   26.54075200
_cell_angle_alpha   85.62693029
_cell_angle_beta   85.62705062
_cell_angle_gamma   59.99922007
_symmetry_Int_Tables_number   1
_chemical_formula_structural   Cu24H2CSe12O
_chemical_formula_sum   'Cu24 H2 Se12 C1 O1'
_cell_volume   1500.17856456
_cell_formula_units_Z   1
loop_
 _symmetry_equiv_pos_site_id
 _symmetry_equiv_pos_as_xyz
  1  'x, y, z'
loop_
 _atom_site_type_symbol
 _atom_site_label
 _atom_site_symmetry_multiplicity
 _atom_site_fract_x
 _atom_site_fract_y
 _atom_site_fract_z
 _atom_site_occupancy
  Cu  Cu0  1  0.26562200  0.26563000  0.40625100  1
  Cu  Cu1  1  0.25651624  0.75637363  0.41083402  1
  Cu  Cu2  1  0.76049252  0.27568219  0.40334133  1
  Cu  Cu3  1  0.76659934  0.77034996  0.40928339  1
  Cu  Cu4  1  0.10937300  0.10937800  0.34374900  1
  Cu  Cu5  1  0.10937400  0.60937800  0.34374900  1
  Cu  Cu6  1  0.60937400  0.10937800  0.34374900  1
  Cu  Cu7  1  0.60937400  0.60937800  0.34374900  1
  Cu  Cu8  1  0.03132770  0.08193892  0.54909724  1
  Cu  Cu9  1  0.05304967  0.59832332  0.54865538  1
  Cu  Cu10  1  0.56899947  0.08663064  0.54059231  1
  Cu  Cu11  1  0.56275935  0.57887500  0.56178724  1
  Cu  Cu12  1  0.44351805  0.45027147  0.47394912  1
  Cu  Cu13  1  0.44017653  0.97782915  0.46828612  1
  Cu  Cu14  1  0.90930624  0.40488984  0.46986042  1
  Cu  Cu15  1  0.97524785  0.84748511  0.47584640  1
  Cu  Cu16  1  0.36799192  0.40135740  0.60342040  1
  Cu  Cu17  1  0.41722202  0.82474293  0.64150750  1
  Cu  Cu18  1  0.89474563  0.40355740  0.60399681  1
  Cu  Cu19  1  0.88660279  0.91288781  0.62280890  1
  Cu  Cu20  1  0.26532138  0.14877424  0.58438431  1
  Cu  Cu21  1  0.21985639  0.74515751  0.59079296  1
  Cu  Cu22  1  0.70749264  0.24940330  0.59049458  1
  Cu  Cu23  1  0.71525315  0.75546967  0.59307842  1
  Se  Se24  1  0.43749700  0.43750300  0.37500000  1
  Se  Se25  1  0.43749700  0.93750300  0.37500000  1
  Se  Se26  1  0.93749700  0.43750300  0.37500000  1
  Se  Se27  1  0.93749700  0.93750300  0.37500000  1
  Se  Se28  1  0.23851981  0.29883829  0.49959636  1
  Se  Se29  1  0.29148024  0.78061077  0.50056692  1
  Se  Se30  1  0.77225051  0.19903894  0.49401763  1
  Se  Se31  1  0.75027518  0.73413377  0.50086320  1
  Se  Se32  1  0.06940693  0.06027589  0.64207841  1
  Se  Se33  1  0.04712333  0.56884364  0.64079650  1
  Se  Se34  1  0.54594529  0.06347387  0.63867942  1
  Se  Se35  1  0.54999720  0.54640230  0.69685129  1
  C  C36  1  0.53238971  0.58986270  0.76369402  1
  O  O37  1  0.45021836  0.75947826  0.78259460  1
  H  H38  1  0.59741512  0.46460541  0.79020365  1
  H  H39  1  0.45861896  0.74928699  0.82017960  1
