# generated using pymatgen
data_HW27
_symmetry_space_group_name_H-M   'P 1'
_cell_length_a   8.18352602
_cell_length_b   8.18352418
_cell_length_c   22.27285200
_cell_angle_alpha   89.99630328
_cell_angle_beta   89.99630328
_cell_angle_gamma   109.47270263
_symmetry_Int_Tables_number   1
_chemical_formula_structural   HW27
_chemical_formula_sum   'H1 W27'
_cell_volume   1406.29500171
_cell_formula_units_Z   1
loop_
 _symmetry_equiv_pos_site_id
 _symmetry_equiv_pos_as_xyz
  1  'x, y, z'
loop_
 _atom_site_type_symbol
 _atom_site_label
 _atom_site_symmetry_multiplicity
 _atom_site_fract_x
 _atom_site_fract_y
 _atom_site_fract_z
 _atom_site_occupancy
  W  W0  1  0.99953475  0.33366191  0.59712008  1
  W  W1  1  0.00040667  0.66708547  0.59722896  1
  W  W2  1  0.99897033  0.99897038  0.59628687  1
  W  W3  1  0.33422909  0.33422916  0.59628687  1
  W  W4  1  0.33279769  0.66611784  0.59722898  1
  W  W5  1  0.33366177  0.99953479  0.59712006  1
  W  W6  1  0.66611777  0.33279778  0.59722902  1
  W  W7  1  0.66661220  0.66661219  0.60166676  1
  W  W8  1  0.66708536  0.00040673  0.59722903  1
  W  W9  1  0.16663446  0.16663449  0.49855032  1
  W  W10  1  0.16597413  0.49999665  0.49853546  1
  W  W11  1  0.16729471  0.83327780  0.49853468  1
  W  W12  1  0.49999667  0.16597418  0.49853549  1
  W  W13  1  0.49845539  0.49845537  0.49751098  1
  W  W14  1  0.50072399  0.83254714  0.49896584  1
  W  W15  1  0.83327770  0.16729473  0.49853472  1
  W  W16  1  0.83254706  0.50072396  0.49896582  1
  W  W17  1  0.83481304  0.83481308  0.49750928  1
  W  W18  1  0.00000000  0.33333300  0.40000000  1
  W  W19  1  0.00000000  0.66666700  0.40000000  1
  W  W20  1  0.00000000  0.00000000  0.40000000  1
  W  W21  1  0.33333300  0.33333300  0.40000000  1
  W  W22  1  0.33333300  0.66666700  0.40000000  1
  W  W23  1  0.33333300  0.00000000  0.40000000  1
  W  W24  1  0.66666700  0.33333300  0.40000000  1
  W  W25  1  0.66666700  0.66666700  0.40000000  1
  W  W26  1  0.66666700  0.00000000  0.40000000  1
  H  H27  1  0.66662421  0.66662555  0.68035190  1
