# generated using pymatgen
data_HW27
_symmetry_space_group_name_H-M   'P 1'
_cell_length_a   8.18352602
_cell_length_b   8.18352418
_cell_length_c   22.27285200
_cell_angle_alpha   89.99630328
_cell_angle_beta   89.99630328
_cell_angle_gamma   109.47270263
_symmetry_Int_Tables_number   1
_chemical_formula_structural   HW27
_chemical_formula_sum   'H1 W27'
_cell_volume   1406.29500171
_cell_formula_units_Z   1
loop_
 _symmetry_equiv_pos_site_id
 _symmetry_equiv_pos_as_xyz
  1  'x, y, z'
loop_
 _atom_site_type_symbol
 _atom_site_label
 _atom_site_symmetry_multiplicity
 _atom_site_fract_x
 _atom_site_fract_y
 _atom_site_fract_z
 _atom_site_occupancy
  W  W0  1  0.99872435  0.33312560  0.59824266  1
  W  W1  1  0.00112113  0.66671981  0.59824242  1
  W  W2  1  0.99992366  0.99992354  0.59804896  1
  W  W3  1  0.32904805  0.32904780  0.59833915  1
  W  W4  1  0.33278316  0.66706004  0.59834692  1
  W  W5  1  0.33312579  0.99872409  0.59824262  1
  W  W6  1  0.66706050  0.33278268  0.59834677  1
  W  W7  1  0.67080274  0.67080249  0.59834054  1
  W  W8  1  0.66672004  0.00112084  0.59824243  1
  W  W9  1  0.16633138  0.16633133  0.49875304  1
  W  W10  1  0.16667779  0.49977734  0.49917229  1
  W  W11  1  0.16714236  0.83278524  0.49927324  1
  W  W12  1  0.49977737  0.16667763  0.49917225  1
  W  W13  1  0.49996598  0.49996591  0.49897809  1
  W  W14  1  0.50015135  0.83325245  0.49917232  1
  W  W15  1  0.83278531  0.16714217  0.49927323  1
  W  W16  1  0.83325256  0.50015130  0.49917229  1
  W  W17  1  0.83359716  0.83359708  0.49875326  1
  W  W18  1  0.00000000  0.33333300  0.40000000  1
  W  W19  1  0.00000000  0.66666700  0.40000000  1
  W  W20  1  0.00000000  0.00000000  0.40000000  1
  W  W21  1  0.33333300  0.33333300  0.40000000  1
  W  W22  1  0.33333300  0.66666700  0.40000000  1
  W  W23  1  0.33333300  0.00000000  0.40000000  1
  W  W24  1  0.66666700  0.33333300  0.40000000  1
  W  W25  1  0.66666700  0.66666700  0.40000000  1
  W  W26  1  0.66666700  0.00000000  0.40000000  1
  H  H27  1  0.49991612  0.49992110  0.64662623  1
