# generated using pymatgen
data_Cu27CO2
_symmetry_space_group_name_H-M   'P 1'
_cell_length_a   7.56931204
_cell_length_b   6.17958932
_cell_length_c   26.20755800
_cell_angle_alpha   89.93253853
_cell_angle_beta   90.00615399
_cell_angle_gamma   90.00637696
_symmetry_Int_Tables_number   1
_chemical_formula_structural   Cu27CO2
_chemical_formula_sum   'Cu27 C1 O2'
_cell_volume   1225.86394768
_cell_formula_units_Z   1
loop_
 _symmetry_equiv_pos_site_id
 _symmetry_equiv_pos_as_xyz
  1  'x, y, z'
loop_
 _atom_site_type_symbol
 _atom_site_label
 _atom_site_symmetry_multiplicity
 _atom_site_fract_x
 _atom_site_fract_y
 _atom_site_fract_z
 _atom_site_occupancy
  Cu  Cu0  1  0.00000100  0.70833300  0.43055600  1
  Cu  Cu1  1  0.33333400  0.70833300  0.43055600  1
  Cu  Cu2  1  0.66666700  0.70833300  0.43055600  1
  Cu  Cu3  1  0.00000100  0.04166600  0.48611100  1
  Cu  Cu4  1  0.33333400  0.04166600  0.48611100  1
  Cu  Cu5  1  0.66666700  0.04166600  0.48611100  1
  Cu  Cu6  1  0.00001414  0.37392024  0.54267258  1
  Cu  Cu7  1  0.33473382  0.37426024  0.54321279  1
  Cu  Cu8  1  0.66529543  0.37426773  0.54321129  1
  Cu  Cu9  1  0.16666700  0.37500000  0.45833300  1
  Cu  Cu10  1  0.50000000  0.37500000  0.45833300  1
  Cu  Cu11  1  0.83333400  0.37500000  0.45833300  1
  Cu  Cu12  1  0.16562982  0.70974836  0.51384149  1
  Cu  Cu13  1  0.50001358  0.70975719  0.51389383  1
  Cu  Cu14  1  0.83439213  0.70975433  0.51384373  1
  Cu  Cu15  1  0.00003699  0.70405658  0.60062883  1
  Cu  Cu16  1  0.33176935  0.70627630  0.59868391  1
  Cu  Cu17  1  0.66829131  0.70629253  0.59868925  1
  Cu  Cu18  1  0.00000497  0.04478413  0.65100487  1
  Cu  Cu19  1  0.32777318  0.03491635  0.65238157  1
  Cu  Cu20  1  0.67224220  0.03495869  0.65238064  1
  Cu  Cu21  1  0.16855326  0.03701564  0.57045619  1
  Cu  Cu22  1  0.50001074  0.03780357  0.57041306  1
  Cu  Cu23  1  0.83146317  0.03702355  0.57045609  1
  Cu  Cu24  1  0.16598858  0.37599707  0.62670780  1
  Cu  Cu25  1  0.50003138  0.38572201  0.62925986  1
  Cu  Cu26  1  0.83406679  0.37600545  0.62670936  1
  C  C27  1  0.50009532  0.33436991  0.70343332  1
  O  O28  1  0.50024525  0.47348182  0.73755774  1
  O  O29  1  0.49993195  0.12259491  0.71469930  1
