# generated using pymatgen
data_Cu24HCSe12O
_symmetry_space_group_name_H-M   'P 1'
_cell_length_a   8.09471283
_cell_length_b   8.09451676
_cell_length_c   26.54075200
_cell_angle_alpha   85.62693029
_cell_angle_beta   85.62705062
_cell_angle_gamma   59.99922007
_symmetry_Int_Tables_number   1
_chemical_formula_structural   Cu24HCSe12O
_chemical_formula_sum   'Cu24 H1 Se12 C1 O1'
_cell_volume   1500.17856456
_cell_formula_units_Z   1
loop_
 _symmetry_equiv_pos_site_id
 _symmetry_equiv_pos_as_xyz
  1  'x, y, z'
loop_
 _atom_site_type_symbol
 _atom_site_label
 _atom_site_symmetry_multiplicity
 _atom_site_fract_x
 _atom_site_fract_y
 _atom_site_fract_z
 _atom_site_occupancy
  Cu  Cu0  1  0.26562200  0.26563000  0.40625100  1
  Cu  Cu1  1  0.26344439  0.76750949  0.40791996  1
  Cu  Cu2  1  0.77033536  0.26024261  0.40927567  1
  Cu  Cu3  1  0.76829811  0.75648677  0.40513563  1
  Cu  Cu4  1  0.10937300  0.10937800  0.34374900  1
  Cu  Cu5  1  0.10937400  0.60937800  0.34374900  1
  Cu  Cu6  1  0.60937400  0.10937800  0.34374900  1
  Cu  Cu7  1  0.60937400  0.60937800  0.34374900  1
  Cu  Cu8  1  0.11019803  0.02861644  0.54083346  1
  Cu  Cu9  1  0.04195656  0.61318829  0.53571266  1
  Cu  Cu10  1  0.50993452  0.10846589  0.54909976  1
  Cu  Cu11  1  0.58619358  0.55291477  0.55719368  1
  Cu  Cu12  1  0.47365068  0.33001536  0.46738362  1
  Cu  Cu13  1  0.35891930  0.95614246  0.46742785  1
  Cu  Cu14  1  0.83861258  0.50890381  0.48094459  1
  Cu  Cu15  1  0.97404736  0.92092436  0.47074231  1
  Cu  Cu16  1  0.40881938  0.38199327  0.61378378  1
  Cu  Cu17  1  0.39021701  0.89666251  0.60692919  1
  Cu  Cu18  1  0.83782310  0.41767908  0.62204292  1
  Cu  Cu19  1  0.89006941  0.88101276  0.66165072  1
  Cu  Cu20  1  0.18063470  0.25975562  0.58745039  1
  Cu  Cu21  1  0.19519555  0.73239529  0.59404288  1
  Cu  Cu22  1  0.76073227  0.16054928  0.59025710  1
  Cu  Cu23  1  0.74178629  0.76199533  0.58938602  1
  Se  Se24  1  0.43749700  0.43750300  0.37500000  1
  Se  Se25  1  0.43749700  0.93750300  0.37500000  1
  Se  Se26  1  0.93749700  0.43750300  0.37500000  1
  Se  Se27  1  0.93749700  0.93750300  0.37500000  1
  Se  Se28  1  0.20749375  0.28715723  0.49693228  1
  Se  Se29  1  0.29820034  0.70197464  0.50142262  1
  Se  Se30  1  0.77025964  0.25935056  0.50223629  1
  Se  Se31  1  0.72690273  0.83190977  0.49621203  1
  Se  Se32  1  0.04799052  0.07299510  0.63603916  1
  Se  Se33  1  0.04843563  0.54993387  0.63542331  1
  Se  Se34  1  0.55456336  0.05233043  0.64231498  1
  Se  Se35  1  0.51240427  0.58219742  0.64861955  1
  C  C36  1  0.90456786  0.84946957  0.73496955  1
  H  H37  1  0.82757205  0.77619860  0.75418120  1
  O  O38  1  0.98761267  0.89912839  0.76112890  1
