# generated using pymatgen
data_Cu24CSe12O
_symmetry_space_group_name_H-M   'P 1'
_cell_length_a   8.09471283
_cell_length_b   8.09451676
_cell_length_c   26.54075200
_cell_angle_alpha   85.62693029
_cell_angle_beta   85.62705062
_cell_angle_gamma   59.99922007
_symmetry_Int_Tables_number   1
_chemical_formula_structural   Cu24CSe12O
_chemical_formula_sum   'Cu24 Se12 C1 O1'
_cell_volume   1500.17856456
_cell_formula_units_Z   1
loop_
 _symmetry_equiv_pos_site_id
 _symmetry_equiv_pos_as_xyz
  1  'x, y, z'
loop_
 _atom_site_type_symbol
 _atom_site_label
 _atom_site_symmetry_multiplicity
 _atom_site_fract_x
 _atom_site_fract_y
 _atom_site_fract_z
 _atom_site_occupancy
  Cu  Cu0  1  0.26562200  0.26563000  0.40625100  1
  Cu  Cu1  1  0.26648395  0.76558339  0.40743777  1
  Cu  Cu2  1  0.76470772  0.26772605  0.40721443  1
  Cu  Cu3  1  0.76502306  0.76609708  0.40743772  1
  Cu  Cu4  1  0.10937300  0.10937800  0.34374900  1
  Cu  Cu5  1  0.10937400  0.60937800  0.34374900  1
  Cu  Cu6  1  0.60937400  0.10937800  0.34374900  1
  Cu  Cu7  1  0.60937400  0.60937800  0.34374900  1
  Cu  Cu8  1  0.07119345  0.07292997  0.54833148  1
  Cu  Cu9  1  0.08088239  0.56371850  0.54886703  1
  Cu  Cu10  1  0.57185102  0.08294226  0.54912426  1
  Cu  Cu11  1  0.57211828  0.58746935  0.54534187  1
  Cu  Cu12  1  0.42429313  0.42146789  0.46819455  1
  Cu  Cu13  1  0.42210470  0.91541304  0.46841162  1
  Cu  Cu14  1  0.91991010  0.41874527  0.46831284  1
  Cu  Cu15  1  0.92002356  0.91807401  0.46649678  1
  Cu  Cu16  1  0.38954640  0.38955017  0.62000583  1
  Cu  Cu17  1  0.40147257  0.88765003  0.62012010  1
  Cu  Cu18  1  0.89792657  0.40208804  0.62049111  1
  Cu  Cu19  1  0.89518925  0.90887266  0.62216694  1
  Cu  Cu20  1  0.23374558  0.22489420  0.59003669  1
  Cu  Cu21  1  0.23316562  0.73136731  0.59093156  1
  Cu  Cu22  1  0.72976569  0.24669931  0.59024753  1
  Cu  Cu23  1  0.74046528  0.74172095  0.59068333  1
  Se  Se24  1  0.43749700  0.43750300  0.37500000  1
  Se  Se25  1  0.43749700  0.93750300  0.37500000  1
  Se  Se26  1  0.93749700  0.43750300  0.37500000  1
  Se  Se27  1  0.93749700  0.93750300  0.37500000  1
  Se  Se28  1  0.25134829  0.24720223  0.49986349  1
  Se  Se29  1  0.24477427  0.74837636  0.50071180  1
  Se  Se30  1  0.75261746  0.24047873  0.50044927  1
  Se  Se31  1  0.75049237  0.74537139  0.50067370  1
  Se  Se32  1  0.06412591  0.06374619  0.64352560  1
  Se  Se33  1  0.05439447  0.56855876  0.64377430  1
  Se  Se34  1  0.55882681  0.05411675  0.64386413  1
  Se  Se35  1  0.55880414  0.55063783  0.64004273  1
  O  O36  1  0.53130542  0.51004924  0.77580594  1
  C  C37  1  0.58815491  0.60522121  0.75769330  1
