# generated using pymatgen
data_Ni27H
_symmetry_space_group_name_H-M   'P 1'
_cell_length_a   7.33151102
_cell_length_b   7.33233304
_cell_length_c   24.19342100
_cell_angle_alpha   89.99505366
_cell_angle_beta   89.99585023
_cell_angle_gamma   89.99674115
_symmetry_Int_Tables_number   1
_chemical_formula_structural   Ni27H
_chemical_formula_sum   'Ni27 H1'
_cell_volume   1300.56766926
_cell_formula_units_Z   1
loop_
 _symmetry_equiv_pos_site_id
 _symmetry_equiv_pos_as_xyz
  1  'x, y, z'
loop_
 _atom_site_type_symbol
 _atom_site_label
 _atom_site_symmetry_multiplicity
 _atom_site_fract_x
 _atom_site_fract_y
 _atom_site_fract_z
 _atom_site_occupancy
  Ni  Ni0  1  0.00000885  0.33391150  0.53589825  1
  Ni  Ni1  1  0.00000309  0.66603892  0.53588751  1
  Ni  Ni2  1  0.99997357  0.99996719  0.53599607  1
  Ni  Ni3  1  0.33377569  0.33377269  0.53657987  1
  Ni  Ni4  1  0.33377749  0.66623152  0.53656855  1
  Ni  Ni5  1  0.33391543  0.00000229  0.53589816  1
  Ni  Ni6  1  0.66623659  0.33377458  0.53656834  1
  Ni  Ni7  1  0.66623129  0.66622620  0.53655707  1
  Ni  Ni8  1  0.66604175  0.99999641  0.53588745  1
  Ni  Ni9  1  0.00000100  0.33333200  0.39285700  1
  Ni  Ni10  1  0.00000100  0.66666500  0.39285700  1
  Ni  Ni11  1  0.00000100  0.99999800  0.39285700  1
  Ni  Ni12  1  0.33333400  0.33333200  0.39285700  1
  Ni  Ni13  1  0.33333400  0.66666500  0.39285700  1
  Ni  Ni14  1  0.33333400  0.99999800  0.39285700  1
  Ni  Ni15  1  0.66666800  0.33333200  0.39285700  1
  Ni  Ni16  1  0.66666800  0.66666500  0.39285700  1
  Ni  Ni17  1  0.66666800  0.99999800  0.39285700  1
  Ni  Ni18  1  0.16633100  0.16633000  0.46440000  1
  Ni  Ni19  1  0.16627900  0.49999100  0.46432200  1
  Ni  Ni20  1  0.16633300  0.83367100  0.46440700  1
  Ni  Ni21  1  0.49999300  0.16627700  0.46432100  1
  Ni  Ni22  1  0.49999200  0.49999100  0.46425500  1
  Ni  Ni23  1  0.49999100  0.83372400  0.46432800  1
  Ni  Ni24  1  0.83367300  0.16633100  0.46440700  1
  Ni  Ni25  1  0.83372600  0.49999000  0.46432900  1
  Ni  Ni26  1  0.83367200  0.83367100  0.46441300  1
  H  H27  1  0.49999289  0.49998872  0.56278157  1
