# generated using pymatgen
data_Cu27HCO2
_symmetry_space_group_name_H-M   'P 1'
_cell_length_a   7.56931204
_cell_length_b   6.17958932
_cell_length_c   26.20755800
_cell_angle_alpha   89.93253853
_cell_angle_beta   90.00615399
_cell_angle_gamma   90.00637696
_symmetry_Int_Tables_number   1
_chemical_formula_structural   Cu27HCO2
_chemical_formula_sum   'Cu27 H1 C1 O2'
_cell_volume   1225.86394768
_cell_formula_units_Z   1
loop_
 _symmetry_equiv_pos_site_id
 _symmetry_equiv_pos_as_xyz
  1  'x, y, z'
loop_
 _atom_site_type_symbol
 _atom_site_label
 _atom_site_symmetry_multiplicity
 _atom_site_fract_x
 _atom_site_fract_y
 _atom_site_fract_z
 _atom_site_occupancy
  Cu  Cu0  1  0.00000100  0.70833300  0.43055600  1
  Cu  Cu1  1  0.33333400  0.70833300  0.43055600  1
  Cu  Cu2  1  0.66666700  0.70833300  0.43055600  1
  Cu  Cu3  1  0.00000100  0.04166600  0.48611100  1
  Cu  Cu4  1  0.33333400  0.04166600  0.48611100  1
  Cu  Cu5  1  0.66666700  0.04166600  0.48611100  1
  Cu  Cu6  1  0.00000556  0.37091044  0.54210276  1
  Cu  Cu7  1  0.33564324  0.37182969  0.54425834  1
  Cu  Cu8  1  0.66437949  0.37184071  0.54426046  1
  Cu  Cu9  1  0.16666700  0.37500000  0.45833300  1
  Cu  Cu10  1  0.50000000  0.37500000  0.45833300  1
  Cu  Cu11  1  0.83333400  0.37500000  0.45833300  1
  Cu  Cu12  1  0.16675674  0.70730765  0.51401233  1
  Cu  Cu13  1  0.50001306  0.70982797  0.51449116  1
  Cu  Cu14  1  0.83325959  0.70731271  0.51401544  1
  Cu  Cu15  1  0.00002734  0.69694090  0.60034922  1
  Cu  Cu16  1  0.33226070  0.70027269  0.59950062  1
  Cu  Cu17  1  0.66778637  0.70028238  0.59951076  1
  Cu  Cu18  1  0.00000381  0.03696779  0.65140755  1
  Cu  Cu19  1  0.33114845  0.03568682  0.65180410  1
  Cu  Cu20  1  0.66886360  0.03572344  0.65181526  1
  Cu  Cu21  1  0.16715309  0.03160263  0.57012569  1
  Cu  Cu22  1  0.50001223  0.03700822  0.57149897  1
  Cu  Cu23  1  0.83284856  0.03160795  0.57012954  1
  Cu  Cu24  1  0.16478046  0.36737879  0.62644398  1
  Cu  Cu25  1  0.50001706  0.37968664  0.63391039  1
  Cu  Cu26  1  0.83525481  0.36739502  0.62645229  1
  C  C27  1  0.50001194  0.38325426  0.74836799  1
  O  O28  1  0.50019042  0.17983251  0.74965397  1
  O  O29  1  0.49988830  0.50534489  0.70916935  1
  H  H30  1  0.49998361  0.47086920  0.78582124  1
