# generated using pymatgen
data_Ni27H
_symmetry_space_group_name_H-M   'P 1'
_cell_length_a   7.33151102
_cell_length_b   7.33233304
_cell_length_c   24.19342100
_cell_angle_alpha   89.99505366
_cell_angle_beta   89.99585023
_cell_angle_gamma   89.99674115
_symmetry_Int_Tables_number   1
_chemical_formula_structural   Ni27H
_chemical_formula_sum   'Ni27 H1'
_cell_volume   1300.56766926
_cell_formula_units_Z   1
loop_
 _symmetry_equiv_pos_site_id
 _symmetry_equiv_pos_as_xyz
  1  'x, y, z'
loop_
 _atom_site_type_symbol
 _atom_site_label
 _atom_site_symmetry_multiplicity
 _atom_site_fract_x
 _atom_site_fract_y
 _atom_site_fract_z
 _atom_site_occupancy
  Ni  Ni0  1  0.00053121  0.33379046  0.53603056  1
  Ni  Ni1  1  0.99937329  0.66623565  0.53590177  1
  Ni  Ni2  1  0.99945764  0.99945989  0.53599221  1
  Ni  Ni3  1  0.33411770  0.33411668  0.53743676  1
  Ni  Ni4  1  0.33369385  0.66628296  0.53592286  1
  Ni  Ni5  1  0.33379013  0.00053527  0.53603179  1
  Ni  Ni6  1  0.66629089  0.33369231  0.53592071  1
  Ni  Ni7  1  0.66628593  0.66627976  0.53579117  1
  Ni  Ni8  1  0.66623876  0.99937427  0.53590261  1
  Ni  Ni9  1  0.00000100  0.33333200  0.39285700  1
  Ni  Ni10  1  0.00000100  0.66666500  0.39285700  1
  Ni  Ni11  1  0.00000100  0.99999800  0.39285700  1
  Ni  Ni12  1  0.33333400  0.33333200  0.39285700  1
  Ni  Ni13  1  0.33333400  0.66666500  0.39285700  1
  Ni  Ni14  1  0.33333400  0.99999800  0.39285700  1
  Ni  Ni15  1  0.66666800  0.33333200  0.39285700  1
  Ni  Ni16  1  0.66666800  0.66666500  0.39285700  1
  Ni  Ni17  1  0.66666800  0.99999800  0.39285700  1
  Ni  Ni18  1  0.16627400  0.16627100  0.46435700  1
  Ni  Ni19  1  0.16619700  0.49999500  0.46431000  1
  Ni  Ni20  1  0.16627400  0.83372900  0.46436400  1
  Ni  Ni21  1  0.49999400  0.16619400  0.46431000  1
  Ni  Ni22  1  0.49999400  0.49999500  0.46427200  1
  Ni  Ni23  1  0.49999400  0.83380600  0.46431800  1
  Ni  Ni24  1  0.83373000  0.16627200  0.46436400  1
  Ni  Ni25  1  0.83380700  0.49999500  0.46431800  1
  Ni  Ni26  1  0.83373000  0.83372900  0.46437100  1
  H  H27  1  0.33353718  0.33354914  0.59840243  1
