# generated using pymatgen
data_Cu24HSe12
_symmetry_space_group_name_H-M   'P 1'
_cell_length_a   8.09471283
_cell_length_b   8.09451676
_cell_length_c   26.54075200
_cell_angle_alpha   85.62693029
_cell_angle_beta   85.62705062
_cell_angle_gamma   59.99922007
_symmetry_Int_Tables_number   1
_chemical_formula_structural   Cu24HSe12
_chemical_formula_sum   'Cu24 H1 Se12'
_cell_volume   1500.17856456
_cell_formula_units_Z   1
loop_
 _symmetry_equiv_pos_site_id
 _symmetry_equiv_pos_as_xyz
  1  'x, y, z'
loop_
 _atom_site_type_symbol
 _atom_site_label
 _atom_site_symmetry_multiplicity
 _atom_site_fract_x
 _atom_site_fract_y
 _atom_site_fract_z
 _atom_site_occupancy
  Cu  Cu0  1  0.26562200  0.26563000  0.40625100  1
  Cu  Cu1  1  0.25981562  0.75549595  0.40953984  1
  Cu  Cu2  1  0.75635074  0.25872487  0.40988234  1
  Cu  Cu3  1  0.75789041  0.75892524  0.40996782  1
  Cu  Cu4  1  0.10937300  0.10937800  0.34374900  1
  Cu  Cu5  1  0.10937400  0.60937800  0.34374900  1
  Cu  Cu6  1  0.60937400  0.10937800  0.34374900  1
  Cu  Cu7  1  0.60937400  0.60937800  0.34374900  1
  Cu  Cu8  1  0.03433676  0.02161595  0.54886920  1
  Cu  Cu9  1  0.03404029  0.53664566  0.55249045  1
  Cu  Cu10  1  0.52818355  0.05080505  0.55066906  1
  Cu  Cu11  1  0.55559664  0.54867201  0.55767466  1
  Cu  Cu12  1  0.46684209  0.46322717  0.46850937  1
  Cu  Cu13  1  0.46033185  0.96614443  0.46648622  1
  Cu  Cu14  1  0.95893756  0.46329598  0.46690305  1
  Cu  Cu15  1  0.96244521  0.95828277  0.46614718  1
  Cu  Cu16  1  0.37543993  0.36258943  0.60122202  1
  Cu  Cu17  1  0.38310421  0.85975713  0.62170262  1
  Cu  Cu18  1  0.85237698  0.40263066  0.62186694  1
  Cu  Cu19  1  0.89274856  0.87763829  0.62810355  1
  Cu  Cu20  1  0.18740751  0.19430577  0.57937685  1
  Cu  Cu21  1  0.21531748  0.69873674  0.58498236  1
  Cu  Cu22  1  0.71389310  0.20842414  0.58744605  1
  Cu  Cu23  1  0.71201743  0.73251890  0.59122251  1
  Se  Se24  1  0.43749700  0.43750300  0.37500000  1
  Se  Se25  1  0.43749700  0.93750300  0.37500000  1
  Se  Se26  1  0.93749700  0.43750300  0.37500000  1
  Se  Se27  1  0.93749700  0.93750300  0.37500000  1
  Se  Se28  1  0.29019936  0.29834234  0.49667622  1
  Se  Se29  1  0.30396241  0.78816690  0.49909712  1
  Se  Se30  1  0.79248699  0.29606090  0.49964714  1
  Se  Se31  1  0.79196766  0.79553434  0.49974173  1
  Se  Se32  1  0.04348523  0.06075309  0.64039325  1
  Se  Se33  1  0.06684075  0.54222573  0.64214348  1
  Se  Se34  1  0.55570223  0.05115835  0.64114404  1
  Se  Se35  1  0.57531420  0.58622410  0.67529444  1
  H  H36  1  0.65778030  0.67521710  0.70498119  1
