# generated using pymatgen
data_Ni27H
_symmetry_space_group_name_H-M   'P 1'
_cell_length_a   7.33151102
_cell_length_b   7.33233304
_cell_length_c   24.19342100
_cell_angle_alpha   89.99505366
_cell_angle_beta   89.99585023
_cell_angle_gamma   89.99674115
_symmetry_Int_Tables_number   1
_chemical_formula_structural   Ni27H
_chemical_formula_sum   'Ni27 H1'
_cell_volume   1300.56766926
_cell_formula_units_Z   1
loop_
 _symmetry_equiv_pos_site_id
 _symmetry_equiv_pos_as_xyz
  1  'x, y, z'
loop_
 _atom_site_type_symbol
 _atom_site_label
 _atom_site_symmetry_multiplicity
 _atom_site_fract_x
 _atom_site_fract_y
 _atom_site_fract_z
 _atom_site_occupancy
  Ni  Ni0  1  0.00001631  0.33391206  0.53592770  1
  Ni  Ni1  1  0.00001107  0.66604090  0.53591617  1
  Ni  Ni2  1  0.99997614  0.99996968  0.53605292  1
  Ni  Ni3  1  0.33356249  0.33355818  0.53656419  1
  Ni  Ni4  1  0.33356294  0.66646095  0.53655378  1
  Ni  Ni5  1  0.33391598  0.00000752  0.53592803  1
  Ni  Ni6  1  0.66646773  0.33355932  0.53655364  1
  Ni  Ni7  1  0.66646225  0.66645487  0.53654339  1
  Ni  Ni8  1  0.66604434  0.00000301  0.53591666  1
  Ni  Ni9  1  0.00000100  0.33333200  0.39285700  1
  Ni  Ni10  1  0.00000100  0.66666500  0.39285700  1
  Ni  Ni11  1  0.00000100  0.99999800  0.39285700  1
  Ni  Ni12  1  0.33333400  0.33333200  0.39285700  1
  Ni  Ni13  1  0.33333400  0.66666500  0.39285700  1
  Ni  Ni14  1  0.33333400  0.99999800  0.39285700  1
  Ni  Ni15  1  0.66666800  0.33333200  0.39285700  1
  Ni  Ni16  1  0.66666800  0.66666500  0.39285700  1
  Ni  Ni17  1  0.66666800  0.99999800  0.39285700  1
  Ni  Ni18  1  0.16633600  0.16633300  0.46442400  1
  Ni  Ni19  1  0.16628200  0.49999000  0.46433500  1
  Ni  Ni20  1  0.16633700  0.83366500  0.46443100  1
  Ni  Ni21  1  0.49999300  0.16627900  0.46433500  1
  Ni  Ni22  1  0.49999300  0.49999100  0.46426400  1
  Ni  Ni23  1  0.49999300  0.83371900  0.46434300  1
  Ni  Ni24  1  0.83366600  0.16633500  0.46443100  1
  Ni  Ni25  1  0.83372000  0.49999000  0.46434300  1
  Ni  Ni26  1  0.83366400  0.83366400  0.46443800  1
  H  H27  1  0.49999092  0.49998633  0.56257047  1
