# generated using pymatgen
data_Cu24HCSe12O
_symmetry_space_group_name_H-M   'P 1'
_cell_length_a   8.09471283
_cell_length_b   8.09451676
_cell_length_c   26.54075200
_cell_angle_alpha   85.62693029
_cell_angle_beta   85.62705062
_cell_angle_gamma   59.99922007
_symmetry_Int_Tables_number   1
_chemical_formula_structural   Cu24HCSe12O
_chemical_formula_sum   'Cu24 H1 Se12 C1 O1'
_cell_volume   1500.17856456
_cell_formula_units_Z   1
loop_
 _symmetry_equiv_pos_site_id
 _symmetry_equiv_pos_as_xyz
  1  'x, y, z'
loop_
 _atom_site_type_symbol
 _atom_site_label
 _atom_site_symmetry_multiplicity
 _atom_site_fract_x
 _atom_site_fract_y
 _atom_site_fract_z
 _atom_site_occupancy
  Cu  Cu0  1  0.26562200  0.26563000  0.40625100  1
  Cu  Cu1  1  0.26562405  0.75968528  0.40543940  1
  Cu  Cu2  1  0.75373287  0.26582871  0.41091947  1
  Cu  Cu3  1  0.72849941  0.76437530  0.41631217  1
  Cu  Cu4  1  0.10937300  0.10937800  0.34374900  1
  Cu  Cu5  1  0.10937400  0.60937800  0.34374900  1
  Cu  Cu6  1  0.60937400  0.10937800  0.34374900  1
  Cu  Cu7  1  0.60937400  0.60937800  0.34374900  1
  Cu  Cu8  1  0.05126636  0.03130837  0.55105250  1
  Cu  Cu9  1  0.04045197  0.52694163  0.55212058  1
  Cu  Cu10  1  0.55797262  0.14361854  0.54086292  1
  Cu  Cu11  1  0.58193665  0.57380863  0.55147206  1
  Cu  Cu12  1  0.43175327  0.41862703  0.47057030  1
  Cu  Cu13  1  0.49483887  0.90298718  0.49917871  1
  Cu  Cu14  1  0.92010632  0.47048360  0.47059116  1
  Cu  Cu15  1  0.98906668  0.97754893  0.46407014  1
  Cu  Cu16  1  0.34674427  0.35621950  0.61105621  1
  Cu  Cu17  1  0.47973719  0.69445947  0.63473706  1
  Cu  Cu18  1  0.82735691  0.46508402  0.61666744  1
  Cu  Cu19  1  0.90767202  0.90901841  0.62578681  1
  Cu  Cu20  1  0.32478003  0.04055265  0.59006310  1
  Cu  Cu21  1  0.22488359  0.68810690  0.58252539  1
  Cu  Cu22  1  0.69227910  0.26262760  0.60399511  1
  Cu  Cu23  1  0.68238156  0.79869173  0.58122906  1
  Se  Se24  1  0.43749700  0.43750300  0.37500000  1
  Se  Se25  1  0.43749700  0.93750300  0.37500000  1
  Se  Se26  1  0.93749700  0.43750300  0.37500000  1
  Se  Se27  1  0.93749700  0.93750300  0.37500000  1
  Se  Se28  1  0.25473674  0.25545049  0.49945810  1
  Se  Se29  1  0.30141409  0.75833154  0.49681065  1
  Se  Se30  1  0.76611806  0.28190065  0.50159993  1
  Se  Se31  1  0.82894821  0.79471080  0.49584056  1
  Se  Se32  1  0.02485851  0.12310022  0.63670527  1
  Se  Se33  1  0.04032638  0.57663952  0.64198663  1
  Se  Se34  1  0.56272936  0.05252113  0.64266094  1
  Se  Se35  1  0.43785979  0.58170570  0.71441436  1
  C  C36  1  0.61982323  0.60188309  0.75221160  1
  H  H37  1  0.66372644  0.49667814  0.78510490  1
  O  O38  1  0.68531325  0.70890448  0.74377206  1
