# generated using pymatgen
data_Mo12HSe24
_symmetry_space_group_name_H-M   'P 1'
_cell_length_a   6.57932100
_cell_length_b   13.15865201
_cell_length_c   25.69278231
_cell_angle_alpha   90.00141744
_cell_angle_beta   86.32845510
_cell_angle_gamma   89.99834975
_symmetry_Int_Tables_number   1
_chemical_formula_structural   Mo12HSe24
_chemical_formula_sum   'Mo12 H1 Se24'
_cell_volume   2219.78712514
_cell_formula_units_Z   1
loop_
 _symmetry_equiv_pos_site_id
 _symmetry_equiv_pos_as_xyz
  1  'x, y, z'
loop_
 _atom_site_type_symbol
 _atom_site_label
 _atom_site_symmetry_multiplicity
 _atom_site_fract_x
 _atom_site_fract_y
 _atom_site_fract_z
 _atom_site_occupancy
  Mo  Mo0  1  0.40730700  0.75010700  0.37035000  1
  Mo  Mo1  1  0.90730700  0.75010700  0.37035000  1
  Mo  Mo2  1  0.14824900  0.24988800  0.40742800  1
  Mo  Mo3  1  0.64824900  0.24988800  0.40742800  1
  Mo  Mo4  1  0.12853291  0.75007662  0.48133115  1
  Mo  Mo5  1  0.63015010  0.75007525  0.48133255  1
  Mo  Mo6  1  0.36957468  0.24996754  0.52288323  1
  Mo  Mo7  1  0.86985038  0.24997050  0.52190056  1
  Mo  Mo8  1  0.35147605  0.75003457  0.59394188  1
  Mo  Mo9  1  0.85150422  0.75004963  0.59386075  1
  Mo  Mo10  1  0.14094265  0.25000543  0.62349452  1
  Mo  Mo11  1  0.54824334  0.25000876  0.62354525  1
  Se  Se12  1  0.14805500  0.62304600  0.40738500  1
  Se  Se13  1  0.64805500  0.62304600  0.40738500  1
  Se  Se14  1  0.40751700  0.12282800  0.37038900  1
  Se  Se15  1  0.90751700  0.12282800  0.37038900  1
  Se  Se16  1  0.14804000  0.87717700  0.40738900  1
  Se  Se17  1  0.64804000  0.87717700  0.40738900  1
  Se  Se18  1  0.40750200  0.37696000  0.37039300  1
  Se  Se19  1  0.90750200  0.37696000  0.37039300  1
  Se  Se20  1  0.36991091  0.62385333  0.51924137  1
  Se  Se21  1  0.86981081  0.62307324  0.51967812  1
  Se  Se22  1  0.12640115  0.12490013  0.48289496  1
  Se  Se23  1  0.63269599  0.12490909  0.48289442  1
  Se  Se24  1  0.36989080  0.87626201  0.51926307  1
  Se  Se25  1  0.86979014  0.87704683  0.51969097  1
  Se  Se26  1  0.12639713  0.37499197  0.48285501  1
  Se  Se27  1  0.63268871  0.37498331  0.48285468  1
  Se  Se28  1  0.09209091  0.62697404  0.63366448  1
  Se  Se29  1  0.59096852  0.62698195  0.63367201  1
  Se  Se30  1  0.35297281  0.10522158  0.59003701  1
  Se  Se31  1  0.84966758  0.12770596  0.60300681  1
  Se  Se32  1  0.09207297  0.87310148  0.63367489  1
  Se  Se33  1  0.59094891  0.87309243  0.63368328  1
  Se  Se34  1  0.35295857  0.39476359  0.59000149  1
  Se  Se35  1  0.84966386  0.37229058  0.60297450  1
  H  H36  1  0.33165835  0.25003404  0.67484772  1
