# generated using pymatgen
data_Cu27H
_symmetry_space_group_name_H-M   'P 1'
_cell_length_a   7.56931204
_cell_length_b   6.17958932
_cell_length_c   26.20755800
_cell_angle_alpha   89.93253853
_cell_angle_beta   90.00615399
_cell_angle_gamma   90.00637696
_symmetry_Int_Tables_number   1
_chemical_formula_structural   Cu27H
_chemical_formula_sum   'Cu27 H1'
_cell_volume   1225.86394768
_cell_formula_units_Z   1
loop_
 _symmetry_equiv_pos_site_id
 _symmetry_equiv_pos_as_xyz
  1  'x, y, z'
loop_
 _atom_site_type_symbol
 _atom_site_label
 _atom_site_symmetry_multiplicity
 _atom_site_fract_x
 _atom_site_fract_y
 _atom_site_fract_z
 _atom_site_occupancy
  Cu  Cu0  1  0.00000100  0.70833300  0.43055600  1
  Cu  Cu1  1  0.33333400  0.70833300  0.43055600  1
  Cu  Cu2  1  0.66666700  0.70833300  0.43055600  1
  Cu  Cu3  1  0.00000100  0.04166600  0.48611100  1
  Cu  Cu4  1  0.33333400  0.04166600  0.48611100  1
  Cu  Cu5  1  0.66666700  0.04166600  0.48611100  1
  Cu  Cu6  1  0.99983909  0.37028339  0.54240351  1
  Cu  Cu7  1  0.33334816  0.37043197  0.54272913  1
  Cu  Cu8  1  0.66683310  0.37029460  0.54240397  1
  Cu  Cu9  1  0.16666700  0.37500000  0.45833300  1
  Cu  Cu10  1  0.50000000  0.37500000  0.45833300  1
  Cu  Cu11  1  0.83333400  0.37500000  0.45833300  1
  Cu  Cu12  1  0.16764307  0.70754985  0.51421310  1
  Cu  Cu13  1  0.49901600  0.70754985  0.51421205  1
  Cu  Cu14  1  0.83334938  0.70812244  0.51318011  1
  Cu  Cu15  1  0.99839234  0.69267243  0.59930516  1
  Cu  Cu16  1  0.33335663  0.69167622  0.60085628  1
  Cu  Cu17  1  0.66828138  0.69268272  0.59930403  1
  Cu  Cu18  1  0.99946437  0.03074403  0.65144689  1
  Cu  Cu19  1  0.33335001  0.02932958  0.65176804  1
  Cu  Cu20  1  0.66718934  0.03076915  0.65144486  1
  Cu  Cu21  1  0.16571359  0.03120846  0.56969146  1
  Cu  Cu22  1  0.50096411  0.03120971  0.56968788  1
  Cu  Cu23  1  0.83334685  0.02846900  0.57027080  1
  Cu  Cu24  1  0.16687911  0.36168460  0.62707353  1
  Cu  Cu25  1  0.49980301  0.36170039  0.62707435  1
  Cu  Cu26  1  0.83335689  0.36322566  0.62693728  1
  H  H27  1  0.33333692  0.76599372  0.66044531  1
