# generated using pymatgen
data_Cu24HCSe12O
_symmetry_space_group_name_H-M   'P 1'
_cell_length_a   8.09471283
_cell_length_b   8.09451676
_cell_length_c   26.54075200
_cell_angle_alpha   85.62693029
_cell_angle_beta   85.62705062
_cell_angle_gamma   59.99922007
_symmetry_Int_Tables_number   1
_chemical_formula_structural   Cu24HCSe12O
_chemical_formula_sum   'Cu24 H1 Se12 C1 O1'
_cell_volume   1500.17856456
_cell_formula_units_Z   1
loop_
 _symmetry_equiv_pos_site_id
 _symmetry_equiv_pos_as_xyz
  1  'x, y, z'
loop_
 _atom_site_type_symbol
 _atom_site_label
 _atom_site_symmetry_multiplicity
 _atom_site_fract_x
 _atom_site_fract_y
 _atom_site_fract_z
 _atom_site_occupancy
  Cu  Cu0  1  0.26562200  0.26563000  0.40625100  1
  Cu  Cu1  1  0.26945814  0.76254886  0.40898960  1
  Cu  Cu2  1  0.76562246  0.26790970  0.40790315  1
  Cu  Cu3  1  0.76542769  0.76181040  0.40876755  1
  Cu  Cu4  1  0.10937300  0.10937800  0.34374900  1
  Cu  Cu5  1  0.10937400  0.60937800  0.34374900  1
  Cu  Cu6  1  0.60937400  0.10937800  0.34374900  1
  Cu  Cu7  1  0.60937400  0.60937800  0.34374900  1
  Cu  Cu8  1  0.08134267  0.06834719  0.55234591  1
  Cu  Cu9  1  0.08066890  0.56145484  0.55281110  1
  Cu  Cu10  1  0.58753574  0.06901264  0.55459085  1
  Cu  Cu11  1  0.57933765  0.57614053  0.52953909  1
  Cu  Cu12  1  0.42248727  0.42702105  0.46944145  1
  Cu  Cu13  1  0.42144454  0.91573783  0.46942679  1
  Cu  Cu14  1  0.90612065  0.42932823  0.46986080  1
  Cu  Cu15  1  0.92439560  0.91869404  0.46374274  1
  Cu  Cu16  1  0.39214511  0.38750577  0.62411174  1
  Cu  Cu17  1  0.39078084  0.89751312  0.62532765  1
  Cu  Cu18  1  0.91596392  0.38912337  0.62509199  1
  Cu  Cu19  1  0.88817353  0.90428186  0.61772780  1
  Cu  Cu20  1  0.24626095  0.22243417  0.58967200  1
  Cu  Cu21  1  0.24204562  0.72511710  0.59143374  1
  Cu  Cu22  1  0.73575501  0.25019721  0.58973174  1
  Cu  Cu23  1  0.73358505  0.72333455  0.59089070  1
  Se  Se24  1  0.43749700  0.43750300  0.37500000  1
  Se  Se25  1  0.43749700  0.93750300  0.37500000  1
  Se  Se26  1  0.93749700  0.43750300  0.37500000  1
  Se  Se27  1  0.93749700  0.93750300  0.37500000  1
  Se  Se28  1  0.23745276  0.25823464  0.50022074  1
  Se  Se29  1  0.23426273  0.75871693  0.50175379  1
  Se  Se30  1  0.74896231  0.23626455  0.50058662  1
  Se  Se31  1  0.74668232  0.76374409  0.50144126  1
  Se  Se32  1  0.05391327  0.05824733  0.64687513  1
  Se  Se33  1  0.05546943  0.57051124  0.64704759  1
  Se  Se34  1  0.55301323  0.05692869  0.64825260  1
  Se  Se35  1  0.56502564  0.55599673  0.63193432  1
  C  C36  1  0.63170475  0.54672692  0.77450741  1
  H  H37  1  0.61877566  0.53362002  0.81699198  1
  O  O38  1  0.50368466  0.59204640  0.74741314  1
