# generated using pymatgen
data_Cu24HC(Se6O)2
_symmetry_space_group_name_H-M   'P 1'
_cell_length_a   8.09471283
_cell_length_b   8.09451676
_cell_length_c   26.54075200
_cell_angle_alpha   85.62693029
_cell_angle_beta   85.62705062
_cell_angle_gamma   59.99922007
_symmetry_Int_Tables_number   1
_chemical_formula_structural   Cu24HC(Se6O)2
_chemical_formula_sum   'Cu24 H1 Se12 C1 O2'
_cell_volume   1500.17856456
_cell_formula_units_Z   1
loop_
 _symmetry_equiv_pos_site_id
 _symmetry_equiv_pos_as_xyz
  1  'x, y, z'
loop_
 _atom_site_type_symbol
 _atom_site_label
 _atom_site_symmetry_multiplicity
 _atom_site_fract_x
 _atom_site_fract_y
 _atom_site_fract_z
 _atom_site_occupancy
  Cu  Cu0  1  0.26562200  0.26563000  0.40625100  1
  Cu  Cu1  1  0.26153783  0.76714532  0.40959655  1
  Cu  Cu2  1  0.76625738  0.26331961  0.40980936  1
  Cu  Cu3  1  0.76649712  0.76761863  0.40973319  1
  Cu  Cu4  1  0.10937300  0.10937800  0.34374900  1
  Cu  Cu5  1  0.10937400  0.60937800  0.34374900  1
  Cu  Cu6  1  0.60937400  0.10937800  0.34374900  1
  Cu  Cu7  1  0.60937400  0.60937800  0.34374900  1
  Cu  Cu8  1  0.07793687  0.08312430  0.54059738  1
  Cu  Cu9  1  0.08819061  0.56635397  0.54027736  1
  Cu  Cu10  1  0.56304982  0.08078140  0.54212456  1
  Cu  Cu11  1  0.57643332  0.57296525  0.55284051  1
  Cu  Cu12  1  0.42135094  0.42279336  0.46768914  1
  Cu  Cu13  1  0.42668735  0.92111469  0.46749295  1
  Cu  Cu14  1  0.91960137  0.41656887  0.46796381  1
  Cu  Cu15  1  0.92595489  0.91464741  0.46973164  1
  Cu  Cu16  1  0.41093203  0.40357809  0.60912253  1
  Cu  Cu17  1  0.41333753  0.87500138  0.61019437  1
  Cu  Cu18  1  0.87587262  0.40662310  0.61037885  1
  Cu  Cu19  1  0.89541469  0.88036688  0.65958832  1
  Cu  Cu20  1  0.23355179  0.23226342  0.58967341  1
  Cu  Cu21  1  0.17802579  0.76270727  0.59262995  1
  Cu  Cu22  1  0.76729412  0.16819192  0.59326994  1
  Cu  Cu23  1  0.76976657  0.76354046  0.59192441  1
  Se  Se24  1  0.43749700  0.43750300  0.37500000  1
  Se  Se25  1  0.43749700  0.93750300  0.37500000  1
  Se  Se26  1  0.93749700  0.43750300  0.37500000  1
  Se  Se27  1  0.93749700  0.93750300  0.37500000  1
  Se  Se28  1  0.25011409  0.24928149  0.49711816  1
  Se  Se29  1  0.25884877  0.74648062  0.50147256  1
  Se  Se30  1  0.74674589  0.24778345  0.50171681  1
  Se  Se31  1  0.74958471  0.74121221  0.50163332  1
  Se  Se32  1  0.06848766  0.06256531  0.63656196  1
  Se  Se33  1  0.06845258  0.54419994  0.63617229  1
  Se  Se34  1  0.55349161  0.06095567  0.63772129  1
  Se  Se35  1  0.55784442  0.55594178  0.64513118  1
  C  C36  1  0.88491263  0.88826691  0.73274883  1
  O  O37  1  0.78674139  0.07152798  0.74863289  1
  O  O38  1  0.95475953  0.75496494  0.76502237  1
  H  H39  1  0.78801314  0.06818437  0.78615407  1
