# generated using pymatgen
data_Cu24HSe12
_symmetry_space_group_name_H-M   'P 1'
_cell_length_a   8.09471283
_cell_length_b   8.09451676
_cell_length_c   26.54075200
_cell_angle_alpha   85.62693029
_cell_angle_beta   85.62705062
_cell_angle_gamma   59.99922007
_symmetry_Int_Tables_number   1
_chemical_formula_structural   Cu24HSe12
_chemical_formula_sum   'Cu24 H1 Se12'
_cell_volume   1500.17856456
_cell_formula_units_Z   1
loop_
 _symmetry_equiv_pos_site_id
 _symmetry_equiv_pos_as_xyz
  1  'x, y, z'
loop_
 _atom_site_type_symbol
 _atom_site_label
 _atom_site_symmetry_multiplicity
 _atom_site_fract_x
 _atom_site_fract_y
 _atom_site_fract_z
 _atom_site_occupancy
  Cu  Cu0  1  0.26562200  0.26563000  0.40625100  1
  Cu  Cu1  1  0.26639611  0.77888004  0.40274386  1
  Cu  Cu2  1  0.76893308  0.26476995  0.40732750  1
  Cu  Cu3  1  0.77554510  0.76574884  0.40885383  1
  Cu  Cu4  1  0.10937300  0.10937800  0.34374900  1
  Cu  Cu5  1  0.10937400  0.60937800  0.34374900  1
  Cu  Cu6  1  0.60937400  0.10937800  0.34374900  1
  Cu  Cu7  1  0.60937400  0.60937800  0.34374900  1
  Cu  Cu8  1  0.00507557  0.18742576  0.55198854  1
  Cu  Cu9  1  0.05719215  0.59917651  0.56246777  1
  Cu  Cu10  1  0.50063121  0.19110928  0.54833322  1
  Cu  Cu11  1  0.62803969  0.52300641  0.55451050  1
  Cu  Cu12  1  0.47032138  0.40262589  0.46989222  1
  Cu  Cu13  1  0.28250087  0.97143269  0.48181754  1
  Cu  Cu14  1  0.85108110  0.43082865  0.47195441  1
  Cu  Cu15  1  0.87995763  0.82965238  0.49150922  1
  Cu  Cu16  1  0.38756691  0.47054106  0.60758828  1
  Cu  Cu17  1  0.47639337  0.71223864  0.63370957  1
  Cu  Cu18  1  0.84950116  0.46899965  0.62379511  1
  Cu  Cu19  1  0.92081180  0.88109110  0.62270901  1
  Cu  Cu20  1  0.20894984  0.25980879  0.60391162  1
  Cu  Cu21  1  0.24555566  0.80794020  0.56819367  1
  Cu  Cu22  1  0.72922202  0.23450974  0.60842282  1
  Cu  Cu23  1  0.69178434  0.81236181  0.57565609  1
  Se  Se24  1  0.43749700  0.43750300  0.37500000  1
  Se  Se25  1  0.43749700  0.93750300  0.37500000  1
  Se  Se26  1  0.93749700  0.43750300  0.37500000  1
  Se  Se27  1  0.93749700  0.93750300  0.37500000  1
  Se  Se28  1  0.21444429  0.28234453  0.49994431  1
  Se  Se29  1  0.21254174  0.71079912  0.49164916  1
  Se  Se30  1  0.77969775  0.16897193  0.49719135  1
  Se  Se31  1  0.63355455  0.75746223  0.49375741  1
  Se  Se32  1  0.13245152  0.01157079  0.63585796  1
  Se  Se33  1  0.09052556  0.54871308  0.65247646  1
  Se  Se34  1  0.56807970  0.05628320  0.63496203  1
  Se  Se35  1  0.65664659  0.53761172  0.70345612  1
  H  H36  1  0.71003901  0.67407983  0.72072011  1
