# generated using pymatgen
data_Cu27H
_symmetry_space_group_name_H-M   'P 1'
_cell_length_a   7.56931204
_cell_length_b   6.17958932
_cell_length_c   26.20755800
_cell_angle_alpha   89.93253853
_cell_angle_beta   90.00615399
_cell_angle_gamma   90.00637696
_symmetry_Int_Tables_number   1
_chemical_formula_structural   Cu27H
_chemical_formula_sum   'Cu27 H1'
_cell_volume   1225.86394768
_cell_formula_units_Z   1
loop_
 _symmetry_equiv_pos_site_id
 _symmetry_equiv_pos_as_xyz
  1  'x, y, z'
loop_
 _atom_site_type_symbol
 _atom_site_label
 _atom_site_symmetry_multiplicity
 _atom_site_fract_x
 _atom_site_fract_y
 _atom_site_fract_z
 _atom_site_occupancy
  Cu  Cu0  1  0.00000100  0.70833300  0.43055600  1
  Cu  Cu1  1  0.33333400  0.70833300  0.43055600  1
  Cu  Cu2  1  0.66666700  0.70833300  0.43055600  1
  Cu  Cu3  1  0.00000100  0.04166600  0.48611100  1
  Cu  Cu4  1  0.33333400  0.04166600  0.48611100  1
  Cu  Cu5  1  0.66666700  0.04166600  0.48611100  1
  Cu  Cu6  1  0.00171401  0.36868427  0.54339900  1
  Cu  Cu7  1  0.33337904  0.36992779  0.54290747  1
  Cu  Cu8  1  0.66503798  0.36869383  0.54339698  1
  Cu  Cu9  1  0.16666700  0.37500000  0.45833300  1
  Cu  Cu10  1  0.50000000  0.37500000  0.45833300  1
  Cu  Cu11  1  0.83333400  0.37500000  0.45833300  1
  Cu  Cu12  1  0.16683369  0.70585896  0.51348147  1
  Cu  Cu13  1  0.49988047  0.70585568  0.51347862  1
  Cu  Cu14  1  0.83337410  0.70679584  0.51335677  1
  Cu  Cu15  1  0.00054534  0.69400799  0.59956755  1
  Cu  Cu16  1  0.33340309  0.70064790  0.60016793  1
  Cu  Cu17  1  0.66622273  0.69402162  0.59956406  1
  Cu  Cu18  1  0.99889127  0.02954004  0.65145919  1
  Cu  Cu19  1  0.33336630  0.03424829  0.65126828  1
  Cu  Cu20  1  0.66777209  0.02955407  0.65145852  1
  Cu  Cu21  1  0.16604272  0.02892386  0.56991971  1
  Cu  Cu22  1  0.50066233  0.02892874  0.56991403  1
  Cu  Cu23  1  0.83336222  0.02951100  0.57033979  1
  Cu  Cu24  1  0.16569707  0.36971995  0.62903771  1
  Cu  Cu25  1  0.50108081  0.36971357  0.62903398  1
  Cu  Cu26  1  0.83338782  0.36459942  0.62705898  1
  H  H27  1  0.33338438  0.29833635  0.67090025  1
