# generated using pymatgen
data_HPt27
_symmetry_space_group_name_H-M   'P 1'
_cell_length_a   8.30563200
_cell_length_b   8.30548099
_cell_length_c   22.66204900
_cell_angle_alpha   86.50247764
_cell_angle_beta   89.99826160
_cell_angle_gamma   119.99933191
_symmetry_Int_Tables_number   1
_chemical_formula_structural   HPt27
_chemical_formula_sum   'H1 Pt27'
_cell_volume   1350.48407360
_cell_formula_units_Z   1
loop_
 _symmetry_equiv_pos_site_id
 _symmetry_equiv_pos_as_xyz
  1  'x, y, z'
loop_
 _atom_site_type_symbol
 _atom_site_label
 _atom_site_symmetry_multiplicity
 _atom_site_fract_x
 _atom_site_fract_y
 _atom_site_fract_z
 _atom_site_occupancy
  Pt  Pt0  1  0.06666700  0.13333400  0.40000000  1
  Pt  Pt1  1  0.06666700  0.46666700  0.40000000  1
  Pt  Pt2  1  0.06666700  0.80000100  0.40000000  1
  Pt  Pt3  1  0.40000000  0.13333400  0.40000000  1
  Pt  Pt4  1  0.40000000  0.46666700  0.40000000  1
  Pt  Pt5  1  0.40000000  0.80000100  0.40000000  1
  Pt  Pt6  1  0.73333400  0.13333400  0.40000000  1
  Pt  Pt7  1  0.73333400  0.46666700  0.40000000  1
  Pt  Pt8  1  0.73333400  0.80000100  0.40000000  1
  Pt  Pt9  1  0.16702073  0.00071505  0.50215526  1
  Pt  Pt10  1  0.16714446  0.33410711  0.50284827  1
  Pt  Pt11  1  0.16717425  0.66706553  0.50283622  1
  Pt  Pt12  1  0.50020520  0.00004819  0.50281028  1
  Pt  Pt13  1  0.50028909  0.33410907  0.50284841  1
  Pt  Pt14  1  0.50007598  0.66682690  0.50336527  1
  Pt  Pt15  1  0.83316682  0.00004828  0.50280991  1
  Pt  Pt16  1  0.83350747  0.33368923  0.50275081  1
  Pt  Pt17  1  0.83321900  0.66706479  0.50283563  1
  Pt  Pt18  1  0.26647978  0.19964029  0.60505125  1
  Pt  Pt19  1  0.26267730  0.53157089  0.60763439  1
  Pt  Pt20  1  0.26638083  0.86828720  0.60498918  1
  Pt  Pt21  1  0.60021430  0.20068756  0.60550424  1
  Pt  Pt22  1  0.60220826  0.53157786  0.60763346  1
  Pt  Pt23  1  0.60219594  0.87107120  0.60749845  1
  Pt  Pt24  1  0.93378827  0.20068829  0.60550407  1
  Pt  Pt25  1  0.93377401  0.53423439  0.60547830  1
  Pt  Pt26  1  0.93522548  0.86828916  0.60498853  1
  H  H27  1  0.48504353  0.63677644  0.64746112  1
