# generated using pymatgen
data_HPt27
_symmetry_space_group_name_H-M   'P 1'
_cell_length_a   8.30563200
_cell_length_b   8.30548099
_cell_length_c   22.66204900
_cell_angle_alpha   86.50247764
_cell_angle_beta   89.99826160
_cell_angle_gamma   119.99933191
_symmetry_Int_Tables_number   1
_chemical_formula_structural   HPt27
_chemical_formula_sum   'H1 Pt27'
_cell_volume   1350.48407360
_cell_formula_units_Z   1
loop_
 _symmetry_equiv_pos_site_id
 _symmetry_equiv_pos_as_xyz
  1  'x, y, z'
loop_
 _atom_site_type_symbol
 _atom_site_label
 _atom_site_symmetry_multiplicity
 _atom_site_fract_x
 _atom_site_fract_y
 _atom_site_fract_z
 _atom_site_occupancy
  Pt  Pt0  1  0.06666700  0.13333400  0.40000000  1
  Pt  Pt1  1  0.06666700  0.46666700  0.40000000  1
  Pt  Pt2  1  0.06666700  0.80000100  0.40000000  1
  Pt  Pt3  1  0.40000000  0.13333400  0.40000000  1
  Pt  Pt4  1  0.40000000  0.46666700  0.40000000  1
  Pt  Pt5  1  0.40000000  0.80000100  0.40000000  1
  Pt  Pt6  1  0.73333400  0.13333400  0.40000000  1
  Pt  Pt7  1  0.73333400  0.46666700  0.40000000  1
  Pt  Pt8  1  0.73333400  0.80000100  0.40000000  1
  Pt  Pt9  1  0.16673055  0.99983978  0.50207285  1
  Pt  Pt10  1  0.16687232  0.33326144  0.50231758  1
  Pt  Pt11  1  0.16667007  0.66668118  0.50203494  1
  Pt  Pt12  1  0.49976673  0.99983991  0.50207305  1
  Pt  Pt13  1  0.50017067  0.33368102  0.50352909  1
  Pt  Pt14  1  0.50008886  0.66587293  0.50348756  1
  Pt  Pt15  1  0.83305376  0.99945056  0.50226960  1
  Pt  Pt16  1  0.83304897  0.33326147  0.50231801  1
  Pt  Pt17  1  0.83243934  0.66587082  0.50348749  1
  Pt  Pt18  1  0.26577003  0.19871672  0.60465013  1
  Pt  Pt19  1  0.26565470  0.53309176  0.60460260  1
  Pt  Pt20  1  0.26643561  0.86621756  0.60474484  1
  Pt  Pt21  1  0.59960203  0.19871768  0.60464993  1
  Pt  Pt22  1  0.59917212  0.53169616  0.61124277  1
  Pt  Pt23  1  0.59964795  0.86715665  0.60457942  1
  Pt  Pt24  1  0.93308403  0.19951416  0.60499132  1
  Pt  Pt25  1  0.93408778  0.53309366  0.60460250  1
  Pt  Pt26  1  0.93416169  0.86715637  0.60457887  1
  H  H27  1  0.59347671  0.52032532  0.67984981  1
