# generated using pymatgen
data_Pt27CO2
_symmetry_space_group_name_H-M   'P 1'
_cell_length_a   8.30563200
_cell_length_b   8.30548099
_cell_length_c   22.66204900
_cell_angle_alpha   86.50247764
_cell_angle_beta   89.99826160
_cell_angle_gamma   119.99933191
_symmetry_Int_Tables_number   1
_chemical_formula_structural   Pt27CO2
_chemical_formula_sum   'Pt27 C1 O2'
_cell_volume   1350.48407360
_cell_formula_units_Z   1
loop_
 _symmetry_equiv_pos_site_id
 _symmetry_equiv_pos_as_xyz
  1  'x, y, z'
loop_
 _atom_site_type_symbol
 _atom_site_label
 _atom_site_symmetry_multiplicity
 _atom_site_fract_x
 _atom_site_fract_y
 _atom_site_fract_z
 _atom_site_occupancy
  Pt  Pt0  1  0.06666700  0.13333400  0.40000000  1
  Pt  Pt1  1  0.06666700  0.46666700  0.40000000  1
  Pt  Pt2  1  0.06666700  0.80000100  0.40000000  1
  Pt  Pt3  1  0.40000000  0.13333400  0.40000000  1
  Pt  Pt4  1  0.40000000  0.46666700  0.40000000  1
  Pt  Pt5  1  0.40000000  0.80000100  0.40000000  1
  Pt  Pt6  1  0.73333400  0.13333400  0.40000000  1
  Pt  Pt7  1  0.73333400  0.46666700  0.40000000  1
  Pt  Pt8  1  0.73333400  0.80000100  0.40000000  1
  Pt  Pt9  1  0.16694201  0.99975845  0.50200332  1
  Pt  Pt10  1  0.16691434  0.33348444  0.50245821  1
  Pt  Pt11  1  0.16667163  0.66666310  0.50239727  1
  Pt  Pt12  1  0.49946421  0.99975621  0.50200219  1
  Pt  Pt13  1  0.50068593  0.33473406  0.50381570  1
  Pt  Pt14  1  0.50028254  0.66516165  0.50396793  1
  Pt  Pt15  1  0.83325352  0.99987012  0.50223664  1
  Pt  Pt16  1  0.83321025  0.33348194  0.50245420  1
  Pt  Pt17  1  0.83153437  0.66517304  0.50395546  1
  Pt  Pt18  1  0.26632969  0.19975499  0.60421887  1
  Pt  Pt19  1  0.26624135  0.53331134  0.60505392  1
  Pt  Pt20  1  0.26654958  0.86645201  0.60529397  1
  Pt  Pt21  1  0.60006843  0.19972879  0.60420507  1
  Pt  Pt22  1  0.59928444  0.53185363  0.61511991  1
  Pt  Pt23  1  0.59949664  0.86714414  0.60395539  1
  Pt  Pt24  1  0.93328491  0.19991398  0.60537633  1
  Pt  Pt25  1  0.93376652  0.53332618  0.60502391  1
  Pt  Pt26  1  0.93433176  0.86718863  0.60394287  1
  C  C27  1  0.59322844  0.51818874  0.70563764  1
  O  O28  1  0.66983787  0.67194643  0.72831368  1
  O  O29  1  0.51338596  0.35704780  0.73025614  1
