# generated using pymatgen
data_Cu27H
_symmetry_space_group_name_H-M   'P 1'
_cell_length_a   7.56931204
_cell_length_b   6.17958932
_cell_length_c   26.20755800
_cell_angle_alpha   89.93253853
_cell_angle_beta   90.00615399
_cell_angle_gamma   90.00637696
_symmetry_Int_Tables_number   1
_chemical_formula_structural   Cu27H
_chemical_formula_sum   'Cu27 H1'
_cell_volume   1225.86394768
_cell_formula_units_Z   1
loop_
 _symmetry_equiv_pos_site_id
 _symmetry_equiv_pos_as_xyz
  1  'x, y, z'
loop_
 _atom_site_type_symbol
 _atom_site_label
 _atom_site_symmetry_multiplicity
 _atom_site_fract_x
 _atom_site_fract_y
 _atom_site_fract_z
 _atom_site_occupancy
  Cu  Cu0  1  0.00000100  0.70833300  0.43055600  1
  Cu  Cu1  1  0.33333400  0.70833300  0.43055600  1
  Cu  Cu2  1  0.66666700  0.70833300  0.43055600  1
  Cu  Cu3  1  0.00000100  0.04166600  0.48611100  1
  Cu  Cu4  1  0.33333400  0.04166600  0.48611100  1
  Cu  Cu5  1  0.66666700  0.04166600  0.48611100  1
  Cu  Cu6  1  0.99975605  0.37077003  0.54273680  1
  Cu  Cu7  1  0.33334918  0.36863793  0.54299259  1
  Cu  Cu8  1  0.66691289  0.37077153  0.54273576  1
  Cu  Cu9  1  0.16666700  0.37500000  0.45833300  1
  Cu  Cu10  1  0.50000000  0.37500000  0.45833300  1
  Cu  Cu11  1  0.83333400  0.37500000  0.45833300  1
  Cu  Cu12  1  0.16658637  0.70715520  0.51380266  1
  Cu  Cu13  1  0.50009015  0.70715644  0.51380064  1
  Cu  Cu14  1  0.83335626  0.70858693  0.51409284  1
  Cu  Cu15  1  0.00006728  0.69807756  0.60045145  1
  Cu  Cu16  1  0.33336500  0.69711186  0.59946178  1
  Cu  Cu17  1  0.66663979  0.69806736  0.60044677  1
  Cu  Cu18  1  0.00040101  0.03710415  0.65206051  1
  Cu  Cu19  1  0.33335662  0.03537251  0.65283070  1
  Cu  Cu20  1  0.66628164  0.03709154  0.65205626  1
  Cu  Cu21  1  0.16783192  0.03019365  0.57039476  1
  Cu  Cu22  1  0.49883109  0.03018949  0.57039187  1
  Cu  Cu23  1  0.83335529  0.03125179  0.57090621  1
  Cu  Cu24  1  0.16615921  0.36940666  0.62643077  1
  Cu  Cu25  1  0.50055577  0.36939654  0.62643481  1
  Cu  Cu26  1  0.83336620  0.36838956  0.62731152  1
  H  H27  1  0.33335922  0.04582219  0.71069448  1
