# generated using pymatgen
data_HPt27CO
_symmetry_space_group_name_H-M   'P 1'
_cell_length_a   8.30563200
_cell_length_b   8.30548099
_cell_length_c   22.66204900
_cell_angle_alpha   86.50247764
_cell_angle_beta   89.99826160
_cell_angle_gamma   119.99933191
_symmetry_Int_Tables_number   1
_chemical_formula_structural   HPt27CO
_chemical_formula_sum   'H1 Pt27 C1 O1'
_cell_volume   1350.48407360
_cell_formula_units_Z   1
loop_
 _symmetry_equiv_pos_site_id
 _symmetry_equiv_pos_as_xyz
  1  'x, y, z'
loop_
 _atom_site_type_symbol
 _atom_site_label
 _atom_site_symmetry_multiplicity
 _atom_site_fract_x
 _atom_site_fract_y
 _atom_site_fract_z
 _atom_site_occupancy
  Pt  Pt0  1  0.06666700  0.13333400  0.40000000  1
  Pt  Pt1  1  0.06666700  0.46666700  0.40000000  1
  Pt  Pt2  1  0.06666700  0.80000100  0.40000000  1
  Pt  Pt3  1  0.40000000  0.13333400  0.40000000  1
  Pt  Pt4  1  0.40000000  0.46666700  0.40000000  1
  Pt  Pt5  1  0.40000000  0.80000100  0.40000000  1
  Pt  Pt6  1  0.73333400  0.13333400  0.40000000  1
  Pt  Pt7  1  0.73333400  0.46666700  0.40000000  1
  Pt  Pt8  1  0.73333400  0.80000100  0.40000000  1
  Pt  Pt9  1  0.17129655  0.00214274  0.50190986  1
  Pt  Pt10  1  0.17050071  0.33498453  0.50254035  1
  Pt  Pt11  1  0.17134786  0.66890910  0.50182634  1
  Pt  Pt12  1  0.50323562  0.00143244  0.50217803  1
  Pt  Pt13  1  0.50415001  0.33626210  0.50458432  1
  Pt  Pt14  1  0.50428408  0.66701989  0.50449757  1
  Pt  Pt15  1  0.83631223  0.00130066  0.50230684  1
  Pt  Pt16  1  0.83633665  0.33476985  0.50233126  1
  Pt  Pt17  1  0.83539615  0.66733736  0.50356580  1
  Pt  Pt18  1  0.27324771  0.20258982  0.60541862  1
  Pt  Pt19  1  0.27359150  0.53624006  0.60521017  1
  Pt  Pt20  1  0.27347561  0.86957254  0.60500538  1
  Pt  Pt21  1  0.60652281  0.20141299  0.60499935  1
  Pt  Pt22  1  0.60798390  0.53441344  0.61571468  1
  Pt  Pt23  1  0.60652358  0.87038611  0.60513182  1
  Pt  Pt24  1  0.94061028  0.20309982  0.60532423  1
  Pt  Pt25  1  0.94273862  0.53669141  0.60354550  1
  Pt  Pt26  1  0.94256305  0.87234076  0.60353530  1
  C  C27  1  0.62743668  0.52959370  0.70155877  1
  H  H28  1  0.49248808  0.48565087  0.72523248  1
  O  O29  1  0.76632697  0.56875982  0.72916496  1
