# generated using pymatgen
data_Rh27N2
_symmetry_space_group_name_H-M   'P 1'
_cell_length_a   8.03672266
_cell_length_b   8.03669826
_cell_length_c   21.92791400
_cell_angle_alpha   86.49772645
_cell_angle_beta   86.49795137
_cell_angle_gamma   59.99991575
_symmetry_Int_Tables_number   1
_chemical_formula_structural   Rh27N2
_chemical_formula_sum   'Rh27 N2'
_cell_volume   1223.49202859
_cell_formula_units_Z   1
loop_
 _symmetry_equiv_pos_site_id
 _symmetry_equiv_pos_as_xyz
  1  'x, y, z'
loop_
 _atom_site_type_symbol
 _atom_site_label
 _atom_site_symmetry_multiplicity
 _atom_site_fract_x
 _atom_site_fract_y
 _atom_site_fract_z
 _atom_site_occupancy
  Rh  Rh0  1  0.06666700  0.06666700  0.40000000  1
  Rh  Rh1  1  0.06666700  0.40000000  0.40000000  1
  Rh  Rh2  1  0.06666700  0.73333300  0.40000000  1
  Rh  Rh3  1  0.40000000  0.06666700  0.40000000  1
  Rh  Rh4  1  0.40000000  0.40000000  0.40000000  1
  Rh  Rh5  1  0.40000000  0.73333300  0.40000000  1
  Rh  Rh6  1  0.73333300  0.06666700  0.40000000  1
  Rh  Rh7  1  0.73333300  0.40000000  0.40000000  1
  Rh  Rh8  1  0.73333300  0.73333300  0.40000000  1
  Rh  Rh9  1  0.16693973  0.16693762  0.49826361  1
  Rh  Rh10  1  0.16703807  0.50027657  0.49823234  1
  Rh  Rh11  1  0.16754586  0.83326237  0.49842055  1
  Rh  Rh12  1  0.50027865  0.16703598  0.49823238  1
  Rh  Rh13  1  0.50177310  0.50177098  0.49944272  1
  Rh  Rh14  1  0.50164735  0.83050014  0.49929964  1
  Rh  Rh15  1  0.83326449  0.16754376  0.49842059  1
  Rh  Rh16  1  0.83050204  0.50164532  0.49929967  1
  Rh  Rh17  1  0.83328874  0.83328663  0.49838681  1
  Rh  Rh18  1  0.26716854  0.26716400  0.59692439  1
  Rh  Rh19  1  0.26422587  0.60085506  0.59692433  1
  Rh  Rh20  1  0.26403837  0.93652835  0.59686395  1
  Rh  Rh21  1  0.60085943  0.26422157  0.59692432  1
  Rh  Rh22  1  0.59976087  0.59975662  0.60535750  1
  Rh  Rh23  1  0.60086025  0.93678177  0.59679914  1
  Rh  Rh24  1  0.93653266  0.26403424  0.59686400  1
  Rh  Rh25  1  0.93678613  0.60085570  0.59679917  1
  Rh  Rh26  1  0.93378646  0.93378217  0.59696295  1
  N  N27  1  0.59463349  0.59463043  0.69199711  1
  N  N28  1  0.59334834  0.59334724  0.74357714  1
