# generated using pymatgen
data_H(Ir4O7)3
_symmetry_space_group_name_H-M   'P 1'
_cell_length_a   6.34574200
_cell_length_b   6.38387200
_cell_length_c   25.53556900
_cell_angle_alpha   90.00000000
_cell_angle_beta   90.00000000
_cell_angle_gamma   90.00000000
_symmetry_Int_Tables_number   1
_chemical_formula_structural   H(Ir4O7)3
_chemical_formula_sum   'Ir12 H1 O21'
_cell_volume   1034.45623375
_cell_formula_units_Z   1
loop_
 _symmetry_equiv_pos_site_id
 _symmetry_equiv_pos_as_xyz
  1  'x, y, z'
loop_
 _atom_site_type_symbol
 _atom_site_label
 _atom_site_symmetry_multiplicity
 _atom_site_fract_x
 _atom_site_fract_y
 _atom_site_fract_z
 _atom_site_occupancy
  Ir  Ir0  1  0.25000000  0.00000000  0.37500000  1
  Ir  Ir1  1  0.75000000  0.00000000  0.37500000  1
  Ir  Ir2  1  0.00000000  0.50000000  0.37500100  1
  Ir  Ir3  1  0.50000000  0.50000000  0.37500100  1
  Ir  Ir4  1  0.25159029  0.50000483  0.50058169  1
  Ir  Ir5  1  0.74839945  0.50000516  0.50058231  1
  Ir  Ir6  1  0.99999741  0.00000484  0.50017105  1
  Ir  Ir7  1  0.49999753  0.00000429  0.49978812  1
  Ir  Ir8  1  0.25250015  0.00003950  0.62339283  1
  Ir  Ir9  1  0.74750126  0.00003981  0.62339162  1
  Ir  Ir10  1  0.99999591  0.50004022  0.62455530  1
  Ir  Ir11  1  0.49999251  0.50003619  0.62834198  1
  O  O12  1  0.25000000  0.69160400  0.37500200  1
  O  O13  1  0.75000000  0.69160400  0.37500200  1
  O  O14  1  0.25000000  0.30839600  0.37500200  1
  O  O15  1  0.75000000  0.30839600  0.37500200  1
  O  O16  1  0.00000000  0.50000000  0.45209900  1
  O  O17  1  0.50000000  0.50000000  0.45209900  1
  O  O18  1  0.24996734  0.19151911  0.50048713  1
  O  O19  1  0.75002652  0.19151940  0.50048727  1
  O  O20  1  0.00000000  0.00000000  0.42290400  1
  O  O21  1  0.50000000  0.00000000  0.42290400  1
  O  O22  1  0.24996590  0.80848922  0.50048579  1
  O  O23  1  0.75002709  0.80848927  0.50048600  1
  O  O24  1  0.00000311  0.00001895  0.57816651  1
  O  O25  1  0.50000155  0.00002271  0.57779740  1
  O  O26  1  0.24905785  0.69434787  0.62794647  1
  O  O27  1  0.75093622  0.69434840  0.62794455  1
  O  O28  1  0.99999358  0.49999235  0.54839624  1
  O  O29  1  0.49998812  0.50000994  0.55044782  1
  O  O30  1  0.24905624  0.30572872  0.62794610  1
  O  O31  1  0.75093706  0.30572848  0.62794446  1
  O  O32  1  0.50003077  0.50002593  0.70163024  1
  H  H33  1  0.49997378  0.50004489  0.74024921  1
