# generated using pymatgen
data_Ir4O7
_symmetry_space_group_name_H-M   'P 1'
_cell_length_a   6.34574200
_cell_length_b   6.38387200
_cell_length_c   25.53556900
_cell_angle_alpha   90.00000000
_cell_angle_beta   90.00000000
_cell_angle_gamma   90.00000000
_symmetry_Int_Tables_number   1
_chemical_formula_structural   Ir4O7
_chemical_formula_sum   'Ir12 O21'
_cell_volume   1034.45623375
_cell_formula_units_Z   3
loop_
 _symmetry_equiv_pos_site_id
 _symmetry_equiv_pos_as_xyz
  1  'x, y, z'
loop_
 _atom_site_type_symbol
 _atom_site_label
 _atom_site_symmetry_multiplicity
 _atom_site_fract_x
 _atom_site_fract_y
 _atom_site_fract_z
 _atom_site_occupancy
  Ir  Ir0  1  0.25000000  0.00000000  0.37500000  1
  Ir  Ir1  1  0.75000000  0.00000000  0.37500000  1
  Ir  Ir2  1  0.00000000  0.50000000  0.37500100  1
  Ir  Ir3  1  0.50000000  0.50000000  0.37500100  1
  Ir  Ir4  1  0.25204572  0.50000768  0.50034901  1
  Ir  Ir5  1  0.74794427  0.50000829  0.50034981  1
  Ir  Ir6  1  0.99999791  0.00000783  0.50043845  1
  Ir  Ir7  1  0.49999819  0.00000832  0.49920868  1
  Ir  Ir8  1  0.25859758  0.00004118  0.62271501  1
  Ir  Ir9  1  0.74140360  0.00004176  0.62271412  1
  Ir  Ir10  1  0.99999752  0.50004279  0.62383220  1
  Ir  Ir11  1  0.49999518  0.50003880  0.63242496  1
  O  O12  1  0.25000000  0.69160400  0.37500200  1
  O  O13  1  0.75000000  0.69160400  0.37500200  1
  O  O14  1  0.25000000  0.30839600  0.37500200  1
  O  O15  1  0.75000000  0.30839600  0.37500200  1
  O  O16  1  0.00000000  0.50000000  0.45209900  1
  O  O17  1  0.50000000  0.50000000  0.45209900  1
  O  O18  1  0.25009005  0.19164664  0.50024969  1
  O  O19  1  0.74990473  0.19164730  0.50025039  1
  O  O20  1  0.00000000  0.00000000  0.42290400  1
  O  O21  1  0.50000000  0.00000000  0.42290400  1
  O  O22  1  0.25008838  0.80836804  0.50024688  1
  O  O23  1  0.74990545  0.80836838  0.50024773  1
  O  O24  1  0.00000183  0.00001782  0.57845690  1
  O  O25  1  0.50000135  0.00002062  0.57662503  1
  O  O26  1  0.24999726  0.69439747  0.62840470  1
  O  O27  1  0.74999768  0.69439725  0.62840387  1
  O  O28  1  0.99999270  0.49999526  0.54813081  1
  O  O29  1  0.49998803  0.50001589  0.55007587  1
  O  O30  1  0.24999904  0.30568549  0.62840167  1
  O  O31  1  0.74999519  0.30568672  0.62840089  1
  O  O32  1  0.49999428  0.50003960  0.70213177  1
