# generated using pymatgen
data_H(Ir3O5)4
_symmetry_space_group_name_H-M   'P 1'
_cell_length_a   6.34574200
_cell_length_b   6.38387200
_cell_length_c   25.53556900
_cell_angle_alpha   90.00000000
_cell_angle_beta   90.00000000
_cell_angle_gamma   90.00000000
_symmetry_Int_Tables_number   1
_chemical_formula_structural   H(Ir3O5)4
_chemical_formula_sum   'Ir12 H1 O20'
_cell_volume   1034.45623375
_cell_formula_units_Z   1
loop_
 _symmetry_equiv_pos_site_id
 _symmetry_equiv_pos_as_xyz
  1  'x, y, z'
loop_
 _atom_site_type_symbol
 _atom_site_label
 _atom_site_symmetry_multiplicity
 _atom_site_fract_x
 _atom_site_fract_y
 _atom_site_fract_z
 _atom_site_occupancy
  Ir  Ir0  1  0.25000000  0.00000000  0.37500000  1
  Ir  Ir1  1  0.75000000  0.00000000  0.37500000  1
  Ir  Ir2  1  0.00000000  0.50000000  0.37500100  1
  Ir  Ir3  1  0.50000000  0.50000000  0.37500100  1
  Ir  Ir4  1  0.25212007  0.50000220  0.50012830  1
  Ir  Ir5  1  0.74786918  0.50000267  0.50012884  1
  Ir  Ir6  1  0.99999733  0.00000187  0.50032109  1
  Ir  Ir7  1  0.49999761  0.00000237  0.49992428  1
  Ir  Ir8  1  0.25294216  0.00002029  0.62387691  1
  Ir  Ir9  1  0.74705714  0.00002054  0.62387677  1
  Ir  Ir10  1  0.99999990  0.50002061  0.62463631  1
  Ir  Ir11  1  0.49999794  0.50001841  0.63200463  1
  O  O12  1  0.25000000  0.69160400  0.37500200  1
  O  O13  1  0.75000000  0.69160400  0.37500200  1
  O  O14  1  0.25000000  0.30839600  0.37500200  1
  O  O15  1  0.75000000  0.30839600  0.37500200  1
  O  O16  1  0.00000000  0.50000000  0.45209900  1
  O  O17  1  0.50000000  0.50000000  0.45209900  1
  O  O18  1  0.25014325  0.19195814  0.50033125  1
  O  O19  1  0.74985110  0.19195862  0.50033159  1
  O  O20  1  0.00000000  0.00000000  0.42290400  1
  O  O21  1  0.50000000  0.00000000  0.42290400  1
  O  O22  1  0.25014232  0.80804580  0.50032949  1
  O  O23  1  0.74985149  0.80804579  0.50032980  1
  O  O24  1  0.00000106  0.00000565  0.57855984  1
  O  O25  1  0.50000065  0.00000204  0.57837750  1
  O  O26  1  0.24882336  0.69477930  0.63072187  1
  O  O27  1  0.75117287  0.69477921  0.63072079  1
  O  O28  1  0.99999040  0.49999363  0.54792943  1
  O  O29  1  0.49998956  0.50000045  0.54800097  1
  O  O30  1  0.24882487  0.30525909  0.63071991  1
  O  O31  1  0.75117104  0.30525890  0.63071875  1
  H  H32  1  0.50000287  0.50001926  0.69413125  1
