# generated using pymatgen
data_HPt27O2
_symmetry_space_group_name_H-M   'P 1'
_cell_length_a   8.30563200
_cell_length_b   8.30548099
_cell_length_c   22.66204900
_cell_angle_alpha   86.50247764
_cell_angle_beta   89.99826160
_cell_angle_gamma   119.99933191
_symmetry_Int_Tables_number   1
_chemical_formula_structural   HPt27O2
_chemical_formula_sum   'H1 Pt27 O2'
_cell_volume   1350.48407360
_cell_formula_units_Z   1
loop_
 _symmetry_equiv_pos_site_id
 _symmetry_equiv_pos_as_xyz
  1  'x, y, z'
loop_
 _atom_site_type_symbol
 _atom_site_label
 _atom_site_symmetry_multiplicity
 _atom_site_fract_x
 _atom_site_fract_y
 _atom_site_fract_z
 _atom_site_occupancy
  Pt  Pt0  1  0.06666700  0.13333400  0.40000000  1
  Pt  Pt1  1  0.06666700  0.46666700  0.40000000  1
  Pt  Pt2  1  0.06666700  0.80000100  0.40000000  1
  Pt  Pt3  1  0.40000000  0.13333400  0.40000000  1
  Pt  Pt4  1  0.40000000  0.46666700  0.40000000  1
  Pt  Pt5  1  0.40000000  0.80000100  0.40000000  1
  Pt  Pt6  1  0.73333400  0.13333400  0.40000000  1
  Pt  Pt7  1  0.73333400  0.46666700  0.40000000  1
  Pt  Pt8  1  0.73333400  0.80000100  0.40000000  1
  Pt  Pt9  1  0.16747136  0.00052859  0.50190006  1
  Pt  Pt10  1  0.16734396  0.33436657  0.50236151  1
  Pt  Pt11  1  0.16748243  0.66776870  0.50196623  1
  Pt  Pt12  1  0.49964171  0.99953015  0.50183541  1
  Pt  Pt13  1  0.50040337  0.33357852  0.50375608  1
  Pt  Pt14  1  0.50140310  0.66660445  0.50442238  1
  Pt  Pt15  1  0.83394086  0.00100517  0.50263195  1
  Pt  Pt16  1  0.83389128  0.33417276  0.50226578  1
  Pt  Pt17  1  0.83293622  0.66691175  0.50410402  1
  Pt  Pt18  1  0.26362566  0.19790871  0.60442439  1
  Pt  Pt19  1  0.26510033  0.53417462  0.60476531  1
  Pt  Pt20  1  0.26676485  0.86746229  0.60526028  1
  Pt  Pt21  1  0.60033311  0.19818624  0.60409518  1
  Pt  Pt22  1  0.59834446  0.53107403  0.61001540  1
  Pt  Pt23  1  0.59981592  0.86810106  0.60511150  1
  Pt  Pt24  1  0.93321375  0.20025852  0.60588896  1
  Pt  Pt25  1  0.93579705  0.53402670  0.60449110  1
  Pt  Pt26  1  0.93453783  0.86825260  0.60510303  1
  O  O27  1  0.59289562  0.48196802  0.69833325  1
  O  O28  1  0.60283658  0.63098577  0.73206054  1
  H  H29  1  0.73426356  0.73053620  0.72486143  1
