# generated using pymatgen
data_HPt27N2
_symmetry_space_group_name_H-M   'P 1'
_cell_length_a   8.30563200
_cell_length_b   8.30548099
_cell_length_c   22.66204900
_cell_angle_alpha   86.50247764
_cell_angle_beta   89.99826160
_cell_angle_gamma   119.99933191
_symmetry_Int_Tables_number   1
_chemical_formula_structural   HPt27N2
_chemical_formula_sum   'H1 Pt27 N2'
_cell_volume   1350.48407360
_cell_formula_units_Z   1
loop_
 _symmetry_equiv_pos_site_id
 _symmetry_equiv_pos_as_xyz
  1  'x, y, z'
loop_
 _atom_site_type_symbol
 _atom_site_label
 _atom_site_symmetry_multiplicity
 _atom_site_fract_x
 _atom_site_fract_y
 _atom_site_fract_z
 _atom_site_occupancy
  Pt  Pt0  1  0.06666700  0.13333400  0.40000000  1
  Pt  Pt1  1  0.06666700  0.46666700  0.40000000  1
  Pt  Pt2  1  0.06666700  0.80000100  0.40000000  1
  Pt  Pt3  1  0.40000000  0.13333400  0.40000000  1
  Pt  Pt4  1  0.40000000  0.46666700  0.40000000  1
  Pt  Pt5  1  0.40000000  0.80000100  0.40000000  1
  Pt  Pt6  1  0.73333400  0.13333400  0.40000000  1
  Pt  Pt7  1  0.73333400  0.46666700  0.40000000  1
  Pt  Pt8  1  0.73333400  0.80000100  0.40000000  1
  Pt  Pt9  1  0.16695886  0.00111730  0.50197000  1
  Pt  Pt10  1  0.16628766  0.33490692  0.50258380  1
  Pt  Pt11  1  0.16747125  0.66844493  0.50174718  1
  Pt  Pt12  1  0.49884031  0.99994651  0.50169063  1
  Pt  Pt13  1  0.49946251  0.33546373  0.50394396  1
  Pt  Pt14  1  0.50029833  0.66605161  0.50511020  1
  Pt  Pt15  1  0.83216829  0.00087644  0.50243894  1
  Pt  Pt16  1  0.83250306  0.33443479  0.50195993  1
  Pt  Pt17  1  0.83140859  0.66721116  0.50366824  1
  Pt  Pt18  1  0.26394014  0.20058549  0.60481023  1
  Pt  Pt19  1  0.26504178  0.53496917  0.60582453  1
  Pt  Pt20  1  0.26570855  0.86854721  0.60511263  1
  Pt  Pt21  1  0.59860825  0.19912332  0.60330747  1
  Pt  Pt22  1  0.59809846  0.53402762  0.61390612  1
  Pt  Pt23  1  0.59895417  0.86929116  0.60561559  1
  Pt  Pt24  1  0.93239002  0.20188321  0.60546413  1
  Pt  Pt25  1  0.93606628  0.53597760  0.60321635  1
  Pt  Pt26  1  0.93465770  0.87145910  0.60407568  1
  N  N27  1  0.63282683  0.49497387  0.69747637  1
  N  N28  1  0.58128220  0.54653735  0.73854002  1
  H  H29  1  0.61989610  0.51169792  0.77926979  1
