# generated using pymatgen
data_Cu27H
_symmetry_space_group_name_H-M   'P 1'
_cell_length_a   7.56931204
_cell_length_b   6.17958932
_cell_length_c   26.20755800
_cell_angle_alpha   89.93253853
_cell_angle_beta   90.00615399
_cell_angle_gamma   90.00637696
_symmetry_Int_Tables_number   1
_chemical_formula_structural   Cu27H
_chemical_formula_sum   'Cu27 H1'
_cell_volume   1225.86394768
_cell_formula_units_Z   1
loop_
 _symmetry_equiv_pos_site_id
 _symmetry_equiv_pos_as_xyz
  1  'x, y, z'
loop_
 _atom_site_type_symbol
 _atom_site_label
 _atom_site_symmetry_multiplicity
 _atom_site_fract_x
 _atom_site_fract_y
 _atom_site_fract_z
 _atom_site_occupancy
  Cu  Cu0  1  0.00000100  0.70833300  0.43055600  1
  Cu  Cu1  1  0.33333400  0.70833300  0.43055600  1
  Cu  Cu2  1  0.66666700  0.70833300  0.43055600  1
  Cu  Cu3  1  0.00000100  0.04166600  0.48611100  1
  Cu  Cu4  1  0.33333400  0.04166600  0.48611100  1
  Cu  Cu5  1  0.66666700  0.04166600  0.48611100  1
  Cu  Cu6  1  0.00175242  0.36849952  0.54356933  1
  Cu  Cu7  1  0.33337996  0.36972272  0.54311408  1
  Cu  Cu8  1  0.66499856  0.36850792  0.54356752  1
  Cu  Cu9  1  0.16666700  0.37500000  0.45833300  1
  Cu  Cu10  1  0.50000000  0.37500000  0.45833300  1
  Cu  Cu11  1  0.83333400  0.37500000  0.45833300  1
  Cu  Cu12  1  0.16676054  0.70580687  0.51364828  1
  Cu  Cu13  1  0.49995376  0.70580459  0.51364645  1
  Cu  Cu14  1  0.83337406  0.70637564  0.51361024  1
  Cu  Cu15  1  0.00052210  0.69393633  0.59998132  1
  Cu  Cu16  1  0.33340080  0.70018054  0.60026684  1
  Cu  Cu17  1  0.66624169  0.69394654  0.59997769  1
  Cu  Cu18  1  0.99855701  0.03004932  0.65147418  1
  Cu  Cu19  1  0.33336343  0.03364014  0.65134782  1
  Cu  Cu20  1  0.66809522  0.03006134  0.65147188  1
  Cu  Cu21  1  0.16612964  0.02873821  0.56993504  1
  Cu  Cu22  1  0.50057041  0.02874570  0.56992922  1
  Cu  Cu23  1  0.83335964  0.02920553  0.57028544  1
  Cu  Cu24  1  0.16573615  0.36904697  0.62934514  1
  Cu  Cu25  1  0.50103476  0.36904913  0.62934365  1
  Cu  Cu26  1  0.83338342  0.36473445  0.62733626  1
  H  H27  1  0.33338200  0.29681689  0.67150093  1
