# generated using pymatgen
data_HPt27O2
_symmetry_space_group_name_H-M   'P 1'
_cell_length_a   8.30563200
_cell_length_b   8.30548099
_cell_length_c   22.66204900
_cell_angle_alpha   86.50247764
_cell_angle_beta   89.99826160
_cell_angle_gamma   119.99933191
_symmetry_Int_Tables_number   1
_chemical_formula_structural   HPt27O2
_chemical_formula_sum   'H1 Pt27 O2'
_cell_volume   1350.48407360
_cell_formula_units_Z   1
loop_
 _symmetry_equiv_pos_site_id
 _symmetry_equiv_pos_as_xyz
  1  'x, y, z'
loop_
 _atom_site_type_symbol
 _atom_site_label
 _atom_site_symmetry_multiplicity
 _atom_site_fract_x
 _atom_site_fract_y
 _atom_site_fract_z
 _atom_site_occupancy
  Pt  Pt0  1  0.06666700  0.13333400  0.40000000  1
  Pt  Pt1  1  0.06666700  0.46666700  0.40000000  1
  Pt  Pt2  1  0.06666700  0.80000100  0.40000000  1
  Pt  Pt3  1  0.40000000  0.13333400  0.40000000  1
  Pt  Pt4  1  0.40000000  0.46666700  0.40000000  1
  Pt  Pt5  1  0.40000000  0.80000100  0.40000000  1
  Pt  Pt6  1  0.73333400  0.13333400  0.40000000  1
  Pt  Pt7  1  0.73333400  0.46666700  0.40000000  1
  Pt  Pt8  1  0.73333400  0.80000100  0.40000000  1
  Pt  Pt9  1  0.16860031  0.00140138  0.50089527  1
  Pt  Pt10  1  0.16912351  0.33514849  0.50151590  1
  Pt  Pt11  1  0.16897630  0.66865414  0.50095200  1
  Pt  Pt12  1  0.50196615  0.00101148  0.50123888  1
  Pt  Pt13  1  0.50226515  0.33482176  0.50244838  1
  Pt  Pt14  1  0.50298646  0.66749411  0.50314495  1
  Pt  Pt15  1  0.83507985  0.00136722  0.50167096  1
  Pt  Pt16  1  0.83542464  0.33506915  0.50160559  1
  Pt  Pt17  1  0.83255965  0.66665889  0.50355250  1
  Pt  Pt18  1  0.27096348  0.20344079  0.60301331  1
  Pt  Pt19  1  0.26959773  0.53750415  0.60296020  1
  Pt  Pt20  1  0.27227040  0.87127435  0.60330567  1
  Pt  Pt21  1  0.60515153  0.20295858  0.60300954  1
  Pt  Pt22  1  0.60802701  0.53924624  0.60786432  1
  Pt  Pt23  1  0.60526139  0.87231863  0.60408200  1
  Pt  Pt24  1  0.93849659  0.20421147  0.60369409  1
  Pt  Pt25  1  0.94127384  0.53771680  0.60337343  1
  Pt  Pt26  1  0.94157652  0.87395806  0.60316079  1
  O  O27  1  0.58254834  0.49728080  0.69507398  1
  O  O28  1  0.59222188  0.64929925  0.72300280  1
  H  H29  1  0.70578745  0.69156297  0.74684652  1
