# generated using pymatgen
data_Rh27CO
_symmetry_space_group_name_H-M   'P 1'
_cell_length_a   8.03672266
_cell_length_b   8.03669826
_cell_length_c   21.92791400
_cell_angle_alpha   86.49772645
_cell_angle_beta   86.49795137
_cell_angle_gamma   59.99991575
_symmetry_Int_Tables_number   1
_chemical_formula_structural   Rh27CO
_chemical_formula_sum   'Rh27 C1 O1'
_cell_volume   1223.49202859
_cell_formula_units_Z   1
loop_
 _symmetry_equiv_pos_site_id
 _symmetry_equiv_pos_as_xyz
  1  'x, y, z'
loop_
 _atom_site_type_symbol
 _atom_site_label
 _atom_site_symmetry_multiplicity
 _atom_site_fract_x
 _atom_site_fract_y
 _atom_site_fract_z
 _atom_site_occupancy
  Rh  Rh0  1  0.06666700  0.06666700  0.40000000  1
  Rh  Rh1  1  0.06666700  0.40000000  0.40000000  1
  Rh  Rh2  1  0.06666700  0.73333300  0.40000000  1
  Rh  Rh3  1  0.40000000  0.06666700  0.40000000  1
  Rh  Rh4  1  0.40000000  0.40000000  0.40000000  1
  Rh  Rh5  1  0.40000000  0.73333300  0.40000000  1
  Rh  Rh6  1  0.73333300  0.06666700  0.40000000  1
  Rh  Rh7  1  0.73333300  0.40000000  0.40000000  1
  Rh  Rh8  1  0.73333300  0.73333300  0.40000000  1
  Rh  Rh9  1  0.16679876  0.16676243  0.49859734  1
  Rh  Rh10  1  0.16680284  0.50034235  0.49859557  1
  Rh  Rh11  1  0.16755475  0.83315988  0.49867399  1
  Rh  Rh12  1  0.50035462  0.16677890  0.49859202  1
  Rh  Rh13  1  0.50163460  0.50163255  0.49924403  1
  Rh  Rh14  1  0.50162570  0.83044176  0.49923056  1
  Rh  Rh15  1  0.83316757  0.16754671  0.49867076  1
  Rh  Rh16  1  0.83051888  0.50159255  0.49919323  1
  Rh  Rh17  1  0.83316862  0.83316237  0.49866883  1
  Rh  Rh18  1  0.26706146  0.26703262  0.59713539  1
  Rh  Rh19  1  0.26413465  0.60067624  0.59728942  1
  Rh  Rh20  1  0.26412309  0.93626970  0.59728613  1
  Rh  Rh21  1  0.60067003  0.26409761  0.59728403  1
  Rh  Rh22  1  0.59942630  0.59934147  0.60626204  1
  Rh  Rh23  1  0.60066805  0.93633381  0.59728004  1
  Rh  Rh24  1  0.93635562  0.26405378  0.59727689  1
  Rh  Rh25  1  0.93637572  0.60066156  0.59727616  1
  Rh  Rh26  1  0.93370912  0.93370816  0.59711447  1
  O  O27  1  0.59051691  0.58252766  0.74241707  1
  C  C28  1  0.59376929  0.58922835  0.68877992  1
