# generated using pymatgen
data_H(Ir6O11)2
_symmetry_space_group_name_H-M   'P 1'
_cell_length_a   6.34574200
_cell_length_b   6.38387200
_cell_length_c   25.53556900
_cell_angle_alpha   90.00000000
_cell_angle_beta   90.00000000
_cell_angle_gamma   90.00000000
_symmetry_Int_Tables_number   1
_chemical_formula_structural   H(Ir6O11)2
_chemical_formula_sum   'Ir12 H1 O22'
_cell_volume   1034.45623375
_cell_formula_units_Z   1
loop_
 _symmetry_equiv_pos_site_id
 _symmetry_equiv_pos_as_xyz
  1  'x, y, z'
loop_
 _atom_site_type_symbol
 _atom_site_label
 _atom_site_symmetry_multiplicity
 _atom_site_fract_x
 _atom_site_fract_y
 _atom_site_fract_z
 _atom_site_occupancy
  Ir  Ir0  1  0.25000000  0.00000000  0.37500000  1
  Ir  Ir1  1  0.75000000  0.00000000  0.37500000  1
  Ir  Ir2  1  0.00000000  0.50000000  0.37500100  1
  Ir  Ir3  1  0.50000000  0.50000000  0.37500100  1
  Ir  Ir4  1  0.25171843  0.49876721  0.50028074  1
  Ir  Ir5  1  0.74867263  0.49760959  0.50030238  1
  Ir  Ir6  1  0.00046815  0.99810287  0.50043985  1
  Ir  Ir7  1  0.50034063  0.99823284  0.49959491  1
  Ir  Ir8  1  0.25646987  0.99097760  0.62343920  1
  Ir  Ir9  1  0.74504580  0.99195507  0.62309210  1
  Ir  Ir10  1  0.00015967  0.49109352  0.62434107  1
  Ir  Ir11  1  0.50053893  0.49208258  0.62984361  1
  O  O12  1  0.25000000  0.69160400  0.37500200  1
  O  O13  1  0.75000000  0.69160400  0.37500200  1
  O  O14  1  0.25000000  0.30839600  0.37500200  1
  O  O15  1  0.75000000  0.30839600  0.37500200  1
  O  O16  1  0.00000000  0.50000000  0.45209900  1
  O  O17  1  0.50000000  0.50000000  0.45209900  1
  O  O18  1  0.25034750  0.19020707  0.50055445  1
  O  O19  1  0.75049361  0.18949251  0.50059340  1
  O  O20  1  0.00000000  0.00000000  0.42290400  1
  O  O21  1  0.50000000  0.00000000  0.42290400  1
  O  O22  1  0.25049603  0.80682921  0.50016698  1
  O  O23  1  0.75009832  0.80629512  0.50020020  1
  O  O24  1  0.00147260  0.99659020  0.57855203  1
  O  O25  1  0.50054430  0.99442860  0.57741131  1
  O  O26  1  0.24810385  0.68645585  0.62924291  1
  O  O27  1  0.74978038  0.68607047  0.62727572  1
  O  O28  1  0.00032283  0.49950462  0.54824769  1
  O  O29  1  0.50029863  0.49409463  0.54944570  1
  O  O30  1  0.25148436  0.29774337  0.62905224  1
  O  O31  1  0.75278856  0.29584491  0.62954879  1
  O  O32  1  0.52439992  0.49247667  0.70482061  1
  O  O33  1  0.43663521  0.67639162  0.72721010  1
  H  H34  1  0.52368139  0.69083904  0.75984800  1
