# generated using pymatgen
data_H(Ir4O7)3
_symmetry_space_group_name_H-M   'P 1'
_cell_length_a   6.34574200
_cell_length_b   6.38387200
_cell_length_c   25.53556900
_cell_angle_alpha   90.00000000
_cell_angle_beta   90.00000000
_cell_angle_gamma   90.00000000
_symmetry_Int_Tables_number   1
_chemical_formula_structural   H(Ir4O7)3
_chemical_formula_sum   'Ir12 H1 O21'
_cell_volume   1034.45623375
_cell_formula_units_Z   1
loop_
 _symmetry_equiv_pos_site_id
 _symmetry_equiv_pos_as_xyz
  1  'x, y, z'
loop_
 _atom_site_type_symbol
 _atom_site_label
 _atom_site_symmetry_multiplicity
 _atom_site_fract_x
 _atom_site_fract_y
 _atom_site_fract_z
 _atom_site_occupancy
  Ir  Ir0  1  0.25000000  0.00000000  0.37500000  1
  Ir  Ir1  1  0.75000000  0.00000000  0.37500000  1
  Ir  Ir2  1  0.00000000  0.50000000  0.37500100  1
  Ir  Ir3  1  0.50000000  0.50000000  0.37500100  1
  Ir  Ir4  1  0.25135633  0.50000920  0.50051016  1
  Ir  Ir5  1  0.74863231  0.50000935  0.50051081  1
  Ir  Ir6  1  0.99999758  0.00000929  0.49973008  1
  Ir  Ir7  1  0.49999701  0.00000795  0.50001353  1
  Ir  Ir8  1  0.24927842  0.00005082  0.62314094  1
  Ir  Ir9  1  0.75072095  0.00005054  0.62313964  1
  Ir  Ir10  1  0.99999903  0.50004761  0.62461751  1
  Ir  Ir11  1  0.49999646  0.50005679  0.62829040  1
  O  O12  1  0.25000000  0.69160400  0.37500200  1
  O  O13  1  0.75000000  0.69160400  0.37500200  1
  O  O14  1  0.25000000  0.30839600  0.37500200  1
  O  O15  1  0.75000000  0.30839600  0.37500200  1
  O  O16  1  0.00000000  0.50000000  0.45209900  1
  O  O17  1  0.50000000  0.50000000  0.45209900  1
  O  O18  1  0.25009501  0.19169078  0.50039810  1
  O  O19  1  0.74989781  0.19169084  0.50039883  1
  O  O20  1  0.00000000  0.00000000  0.42290400  1
  O  O21  1  0.50000000  0.00000000  0.42290400  1
  O  O22  1  0.25009168  0.80832436  0.50039593  1
  O  O23  1  0.74990043  0.80832458  0.50039683  1
  O  O24  1  0.00000301  0.00001105  0.57770100  1
  O  O25  1  0.49999983  0.00001254  0.57821438  1
  O  O26  1  0.24818756  0.69455411  0.62855549  1
  O  O27  1  0.75180610  0.69455275  0.62855349  1
  O  O28  1  0.99999312  0.49998338  0.54818642  1
  O  O29  1  0.49998775  0.50001973  0.55046977  1
  O  O30  1  0.24818120  0.30554135  0.62854884  1
  O  O31  1  0.75181230  0.30554246  0.62854693  1
  O  O32  1  0.49996228  0.49974439  0.70364347  1
  H  H33  1  0.50000464  0.50022184  0.74180358  1
