# generated using pymatgen
data_HRh27O
_symmetry_space_group_name_H-M   'P 1'
_cell_length_a   8.03672266
_cell_length_b   8.03669826
_cell_length_c   21.92791400
_cell_angle_alpha   86.49772645
_cell_angle_beta   86.49795137
_cell_angle_gamma   59.99991575
_symmetry_Int_Tables_number   1
_chemical_formula_structural   HRh27O
_chemical_formula_sum   'H1 Rh27 O1'
_cell_volume   1223.49202859
_cell_formula_units_Z   1
loop_
 _symmetry_equiv_pos_site_id
 _symmetry_equiv_pos_as_xyz
  1  'x, y, z'
loop_
 _atom_site_type_symbol
 _atom_site_label
 _atom_site_symmetry_multiplicity
 _atom_site_fract_x
 _atom_site_fract_y
 _atom_site_fract_z
 _atom_site_occupancy
  Rh  Rh0  1  0.06666700  0.06666700  0.40000000  1
  Rh  Rh1  1  0.06666700  0.40000000  0.40000000  1
  Rh  Rh2  1  0.06666700  0.73333300  0.40000000  1
  Rh  Rh3  1  0.40000000  0.06666700  0.40000000  1
  Rh  Rh4  1  0.40000000  0.40000000  0.40000000  1
  Rh  Rh5  1  0.40000000  0.73333300  0.40000000  1
  Rh  Rh6  1  0.73333300  0.06666700  0.40000000  1
  Rh  Rh7  1  0.73333300  0.40000000  0.40000000  1
  Rh  Rh8  1  0.73333300  0.73333300  0.40000000  1
  Rh  Rh9  1  0.16743466  0.16743214  0.49826369  1
  Rh  Rh10  1  0.16773142  0.50077181  0.49798736  1
  Rh  Rh11  1  0.16807038  0.83371916  0.49848236  1
  Rh  Rh12  1  0.50077418  0.16772899  0.49798733  1
  Rh  Rh13  1  0.50180771  0.50180498  0.49960942  1
  Rh  Rh14  1  0.50146331  0.83162181  0.49970051  1
  Rh  Rh15  1  0.83372178  0.16806789  0.49848241  1
  Rh  Rh16  1  0.83162411  0.50146093  0.49970058  1
  Rh  Rh17  1  0.83373577  0.83373325  0.49836058  1
  Rh  Rh18  1  0.26828316  0.26827789  0.59701330  1
  Rh  Rh19  1  0.26648282  0.60164460  0.59709029  1
  Rh  Rh20  1  0.26557836  0.93634540  0.59705748  1
  Rh  Rh21  1  0.60164959  0.26647799  0.59709033  1
  Rh  Rh22  1  0.60263973  0.60263449  0.60141783  1
  Rh  Rh23  1  0.60168490  0.93783758  0.59666105  1
  Rh  Rh24  1  0.93635042  0.26557350  0.59705747  1
  Rh  Rh25  1  0.93784266  0.60167959  0.59666103  1
  Rh  Rh26  1  0.93460699  0.93460193  0.59712211  1
  O  O27  1  0.60466363  0.60465917  0.69427082  1
  H  H28  1  0.53679877  0.53678593  0.71040981  1
