# generated using pymatgen
data_Rh27CO2
_symmetry_space_group_name_H-M   'P 1'
_cell_length_a   8.03672266
_cell_length_b   8.03669826
_cell_length_c   21.92791400
_cell_angle_alpha   86.49772645
_cell_angle_beta   86.49795137
_cell_angle_gamma   59.99991575
_symmetry_Int_Tables_number   1
_chemical_formula_structural   Rh27CO2
_chemical_formula_sum   'Rh27 C1 O2'
_cell_volume   1223.49202859
_cell_formula_units_Z   1
loop_
 _symmetry_equiv_pos_site_id
 _symmetry_equiv_pos_as_xyz
  1  'x, y, z'
loop_
 _atom_site_type_symbol
 _atom_site_label
 _atom_site_symmetry_multiplicity
 _atom_site_fract_x
 _atom_site_fract_y
 _atom_site_fract_z
 _atom_site_occupancy
  Rh  Rh0  1  0.06666700  0.06666700  0.40000000  1
  Rh  Rh1  1  0.06666700  0.40000000  0.40000000  1
  Rh  Rh2  1  0.06666700  0.73333300  0.40000000  1
  Rh  Rh3  1  0.40000000  0.06666700  0.40000000  1
  Rh  Rh4  1  0.40000000  0.40000000  0.40000000  1
  Rh  Rh5  1  0.40000000  0.73333300  0.40000000  1
  Rh  Rh6  1  0.73333300  0.06666700  0.40000000  1
  Rh  Rh7  1  0.73333300  0.40000000  0.40000000  1
  Rh  Rh8  1  0.73333300  0.73333300  0.40000000  1
  Rh  Rh9  1  0.16644981  0.16681865  0.49898806  1
  Rh  Rh10  1  0.16701535  0.50016274  0.49826985  1
  Rh  Rh11  1  0.16751853  0.83335730  0.49850590  1
  Rh  Rh12  1  0.50051338  0.16658773  0.49894203  1
  Rh  Rh13  1  0.50132412  0.50077042  0.49847746  1
  Rh  Rh14  1  0.50111531  0.83155418  0.49850816  1
  Rh  Rh15  1  0.83310460  0.16764000  0.49862508  1
  Rh  Rh16  1  0.83187128  0.50072074  0.49850015  1
  Rh  Rh17  1  0.83279003  0.83338384  0.49856364  1
  Rh  Rh18  1  0.26665049  0.26799406  0.59699150  1
  Rh  Rh19  1  0.26571369  0.60074675  0.59683239  1
  Rh  Rh20  1  0.26597170  0.93434384  0.59708523  1
  Rh  Rh21  1  0.60046490  0.26694145  0.59712433  1
  Rh  Rh22  1  0.59971440  0.60119384  0.60063728  1
  Rh  Rh23  1  0.60000417  0.93447674  0.59734071  1
  Rh  Rh24  1  0.93361679  0.26671596  0.59730175  1
  Rh  Rh25  1  0.93557833  0.60059256  0.59674486  1
  Rh  Rh26  1  0.93381536  0.93348351  0.59672713  1
  C  C27  1  0.59890957  0.59758373  0.69427731  1
  O  O28  1  0.51788596  0.76054772  0.71688932  1
  O  O29  1  0.67972753  0.43275222  0.71902132  1
