# generated using pymatgen
data_HRh27CO
_symmetry_space_group_name_H-M   'P 1'
_cell_length_a   8.03672266
_cell_length_b   8.03669826
_cell_length_c   21.92791400
_cell_angle_alpha   86.49772645
_cell_angle_beta   86.49795137
_cell_angle_gamma   59.99991575
_symmetry_Int_Tables_number   1
_chemical_formula_structural   HRh27CO
_chemical_formula_sum   'H1 Rh27 C1 O1'
_cell_volume   1223.49202859
_cell_formula_units_Z   1
loop_
 _symmetry_equiv_pos_site_id
 _symmetry_equiv_pos_as_xyz
  1  'x, y, z'
loop_
 _atom_site_type_symbol
 _atom_site_label
 _atom_site_symmetry_multiplicity
 _atom_site_fract_x
 _atom_site_fract_y
 _atom_site_fract_z
 _atom_site_occupancy
  Rh  Rh0  1  0.06666700  0.06666700  0.40000000  1
  Rh  Rh1  1  0.06666700  0.40000000  0.40000000  1
  Rh  Rh2  1  0.06666700  0.73333300  0.40000000  1
  Rh  Rh3  1  0.40000000  0.06666700  0.40000000  1
  Rh  Rh4  1  0.40000000  0.40000000  0.40000000  1
  Rh  Rh5  1  0.40000000  0.73333300  0.40000000  1
  Rh  Rh6  1  0.73333300  0.06666700  0.40000000  1
  Rh  Rh7  1  0.73333300  0.40000000  0.40000000  1
  Rh  Rh8  1  0.73333300  0.73333300  0.40000000  1
  Rh  Rh9  1  0.16707308  0.16711411  0.49857528  1
  Rh  Rh10  1  0.16355245  0.50225948  0.50018064  1
  Rh  Rh11  1  0.16748189  0.83296901  0.49864519  1
  Rh  Rh12  1  0.49981878  0.16793700  0.49784283  1
  Rh  Rh13  1  0.50096460  0.50282044  0.49917194  1
  Rh  Rh14  1  0.50150476  0.83062302  0.49904479  1
  Rh  Rh15  1  0.83301418  0.16754698  0.49818582  1
  Rh  Rh16  1  0.83109900  0.50211884  0.49887955  1
  Rh  Rh17  1  0.83358214  0.83154307  0.49934156  1
  Rh  Rh18  1  0.26856253  0.26630549  0.59702126  1
  Rh  Rh19  1  0.26777426  0.60221080  0.59759364  1
  Rh  Rh20  1  0.26511699  0.93505353  0.59747002  1
  Rh  Rh21  1  0.60042913  0.26708741  0.59696063  1
  Rh  Rh22  1  0.60152942  0.60134623  0.60650673  1
  Rh  Rh23  1  0.59737904  0.94038277  0.59688667  1
  Rh  Rh24  1  0.93590942  0.26296681  0.59654674  1
  Rh  Rh25  1  0.93478380  0.60065173  0.60058599  1
  Rh  Rh26  1  0.93356839  0.93597429  0.59691102  1
  C  C27  1  0.67520711  0.60060676  0.68758842  1
  H  H28  1  0.58466158  0.60529026  0.72896653  1
  O  O29  1  0.83160805  0.59460318  0.69842493  1
