# generated using pymatgen
data_Rh27N2
_symmetry_space_group_name_H-M   'P 1'
_cell_length_a   8.03672266
_cell_length_b   8.03669826
_cell_length_c   21.92791400
_cell_angle_alpha   86.49772645
_cell_angle_beta   86.49795137
_cell_angle_gamma   59.99991575
_symmetry_Int_Tables_number   1
_chemical_formula_structural   Rh27N2
_chemical_formula_sum   'Rh27 N2'
_cell_volume   1223.49202859
_cell_formula_units_Z   1
loop_
 _symmetry_equiv_pos_site_id
 _symmetry_equiv_pos_as_xyz
  1  'x, y, z'
loop_
 _atom_site_type_symbol
 _atom_site_label
 _atom_site_symmetry_multiplicity
 _atom_site_fract_x
 _atom_site_fract_y
 _atom_site_fract_z
 _atom_site_occupancy
  Rh  Rh0  1  0.06666700  0.06666700  0.40000000  1
  Rh  Rh1  1  0.06666700  0.40000000  0.40000000  1
  Rh  Rh2  1  0.06666700  0.73333300  0.40000000  1
  Rh  Rh3  1  0.40000000  0.06666700  0.40000000  1
  Rh  Rh4  1  0.40000000  0.40000000  0.40000000  1
  Rh  Rh5  1  0.40000000  0.73333300  0.40000000  1
  Rh  Rh6  1  0.73333300  0.06666700  0.40000000  1
  Rh  Rh7  1  0.73333300  0.40000000  0.40000000  1
  Rh  Rh8  1  0.73333300  0.73333300  0.40000000  1
  Rh  Rh9  1  0.16700917  0.16700761  0.49810873  1
  Rh  Rh10  1  0.16710819  0.50021172  0.49808971  1
  Rh  Rh11  1  0.16737796  0.83337440  0.49828145  1
  Rh  Rh12  1  0.50021387  0.16710586  0.49808975  1
  Rh  Rh13  1  0.50194756  0.50194591  0.49915183  1
  Rh  Rh14  1  0.50182402  0.83025195  0.49901438  1
  Rh  Rh15  1  0.83337673  0.16737585  0.49828147  1
  Rh  Rh16  1  0.83025395  0.50182177  0.49901435  1
  Rh  Rh17  1  0.83340307  0.83340151  0.49824639  1
  Rh  Rh18  1  0.26721475  0.26721042  0.59652151  1
  Rh  Rh19  1  0.26448237  0.60078444  0.59642476  1
  Rh  Rh20  1  0.26428114  0.93654134  0.59636662  1
  Rh  Rh21  1  0.60078856  0.26447826  0.59642479  1
  Rh  Rh22  1  0.59983583  0.59983184  0.60510407  1
  Rh  Rh23  1  0.60078144  0.93679610  0.59630265  1
  Rh  Rh24  1  0.93654545  0.26427720  0.59636655  1
  Rh  Rh25  1  0.93680020  0.60077708  0.59630270  1
  Rh  Rh26  1  0.93383407  0.93383007  0.59651881  1
  N  N27  1  0.59431408  0.59430756  0.69264956  1
  N  N28  1  0.59278375  0.59277537  0.74400994  1
