# generated using pymatgen
data_HRh27O
_symmetry_space_group_name_H-M   'P 1'
_cell_length_a   8.03672266
_cell_length_b   8.03669826
_cell_length_c   21.92791400
_cell_angle_alpha   86.49772645
_cell_angle_beta   86.49795137
_cell_angle_gamma   59.99991575
_symmetry_Int_Tables_number   1
_chemical_formula_structural   HRh27O
_chemical_formula_sum   'H1 Rh27 O1'
_cell_volume   1223.49202859
_cell_formula_units_Z   1
loop_
 _symmetry_equiv_pos_site_id
 _symmetry_equiv_pos_as_xyz
  1  'x, y, z'
loop_
 _atom_site_type_symbol
 _atom_site_label
 _atom_site_symmetry_multiplicity
 _atom_site_fract_x
 _atom_site_fract_y
 _atom_site_fract_z
 _atom_site_occupancy
  Rh  Rh0  1  0.06666700  0.06666700  0.40000000  1
  Rh  Rh1  1  0.06666700  0.40000000  0.40000000  1
  Rh  Rh2  1  0.06666700  0.73333300  0.40000000  1
  Rh  Rh3  1  0.40000000  0.06666700  0.40000000  1
  Rh  Rh4  1  0.40000000  0.40000000  0.40000000  1
  Rh  Rh5  1  0.40000000  0.73333300  0.40000000  1
  Rh  Rh6  1  0.73333300  0.06666700  0.40000000  1
  Rh  Rh7  1  0.73333300  0.40000000  0.40000000  1
  Rh  Rh8  1  0.73333300  0.73333300  0.40000000  1
  Rh  Rh9  1  0.16603241  0.16602998  0.49795137  1
  Rh  Rh10  1  0.16445220  0.49976058  0.49937175  1
  Rh  Rh11  1  0.16592833  0.83255129  0.49796958  1
  Rh  Rh12  1  0.49976303  0.16444987  0.49937176  1
  Rh  Rh13  1  0.49954982  0.49954728  0.49926152  1
  Rh  Rh14  1  0.49980774  0.83235845  0.49770968  1
  Rh  Rh15  1  0.83255377  0.16592582  0.49796962  1
  Rh  Rh16  1  0.83236083  0.49980538  0.49770972  1
  Rh  Rh17  1  0.83228395  0.83228159  0.49787235  1
  Rh  Rh18  1  0.26491267  0.26490771  0.59628634  1
  Rh  Rh19  1  0.26479703  0.60017490  0.59626964  1
  Rh  Rh20  1  0.26267101  0.93366343  0.59605466  1
  Rh  Rh21  1  0.60018013  0.26479192  0.59626961  1
  Rh  Rh22  1  0.59638713  0.59638252  0.59713261  1
  Rh  Rh23  1  0.59604530  0.93635708  0.59762862  1
  Rh  Rh24  1  0.93366826  0.26266635  0.59605466  1
  Rh  Rh25  1  0.93636201  0.59604049  0.59762872  1
  Rh  Rh26  1  0.93338199  0.93337699  0.59611146  1
  O  O27  1  0.70021827  0.70021365  0.66256835  1
  H  H28  1  0.68986197  0.68986139  0.70822822  1
