# generated using pymatgen
data_Pt27CO
_symmetry_space_group_name_H-M   'P 1'
_cell_length_a   8.30563200
_cell_length_b   8.30548099
_cell_length_c   22.66204900
_cell_angle_alpha   86.50247764
_cell_angle_beta   89.99826160
_cell_angle_gamma   119.99933191
_symmetry_Int_Tables_number   1
_chemical_formula_structural   Pt27CO
_chemical_formula_sum   'Pt27 C1 O1'
_cell_volume   1350.48407360
_cell_formula_units_Z   1
loop_
 _symmetry_equiv_pos_site_id
 _symmetry_equiv_pos_as_xyz
  1  'x, y, z'
loop_
 _atom_site_type_symbol
 _atom_site_label
 _atom_site_symmetry_multiplicity
 _atom_site_fract_x
 _atom_site_fract_y
 _atom_site_fract_z
 _atom_site_occupancy
  Pt  Pt0  1  0.06666700  0.13333400  0.40000000  1
  Pt  Pt1  1  0.06666700  0.46666700  0.40000000  1
  Pt  Pt2  1  0.06666700  0.80000100  0.40000000  1
  Pt  Pt3  1  0.40000000  0.13333400  0.40000000  1
  Pt  Pt4  1  0.40000000  0.46666700  0.40000000  1
  Pt  Pt5  1  0.40000000  0.80000100  0.40000000  1
  Pt  Pt6  1  0.73333400  0.13333400  0.40000000  1
  Pt  Pt7  1  0.73333400  0.46666700  0.40000000  1
  Pt  Pt8  1  0.73333400  0.80000100  0.40000000  1
  Pt  Pt9  1  0.16698759  0.99952850  0.50101476  1
  Pt  Pt10  1  0.16696598  0.33318865  0.50155472  1
  Pt  Pt11  1  0.16682927  0.66705891  0.50106447  1
  Pt  Pt12  1  0.49938373  0.99964305  0.50104198  1
  Pt  Pt13  1  0.50032584  0.33382209  0.50411087  1
  Pt  Pt14  1  0.50022881  0.66531570  0.50383328  1
  Pt  Pt15  1  0.83309999  0.99931933  0.50156214  1
  Pt  Pt16  1  0.83312097  0.33316971  0.50156122  1
  Pt  Pt17  1  0.83161444  0.66512723  0.50406202  1
  Pt  Pt18  1  0.26239039  0.19499684  0.60364670  1
  Pt  Pt19  1  0.26242006  0.53222949  0.60350496  1
  Pt  Pt20  1  0.26651251  0.86560344  0.60390167  1
  Pt  Pt21  1  0.60002703  0.19520130  0.60369391  1
  Pt  Pt22  1  0.59926841  0.53053031  0.61058758  1
  Pt  Pt23  1  0.60001065  0.86990519  0.60349462  1
  Pt  Pt24  1  0.93310390  0.19892432  0.60441917  1
  Pt  Pt25  1  0.93694235  0.53217805  0.60366407  1
  Pt  Pt26  1  0.93726981  0.86986411  0.60360283  1
  O  O27  1  0.57745025  0.51144898  0.74220480  1
  C  C28  1  0.58608268  0.51871982  0.69092895  1
