# generated using pymatgen
data_Pt27O
_symmetry_space_group_name_H-M   'P 1'
_cell_length_a   8.30563200
_cell_length_b   8.30548099
_cell_length_c   22.66204900
_cell_angle_alpha   86.50247764
_cell_angle_beta   89.99826160
_cell_angle_gamma   119.99933191
_symmetry_Int_Tables_number   1
_chemical_formula_structural   Pt27O
_chemical_formula_sum   'Pt27 O1'
_cell_volume   1350.48407360
_cell_formula_units_Z   1
loop_
 _symmetry_equiv_pos_site_id
 _symmetry_equiv_pos_as_xyz
  1  'x, y, z'
loop_
 _atom_site_type_symbol
 _atom_site_label
 _atom_site_symmetry_multiplicity
 _atom_site_fract_x
 _atom_site_fract_y
 _atom_site_fract_z
 _atom_site_occupancy
  Pt  Pt0  1  0.06666700  0.13333400  0.40000000  1
  Pt  Pt1  1  0.06666700  0.46666700  0.40000000  1
  Pt  Pt2  1  0.06666700  0.80000100  0.40000000  1
  Pt  Pt3  1  0.40000000  0.13333400  0.40000000  1
  Pt  Pt4  1  0.40000000  0.46666700  0.40000000  1
  Pt  Pt5  1  0.40000000  0.80000100  0.40000000  1
  Pt  Pt6  1  0.73333400  0.13333400  0.40000000  1
  Pt  Pt7  1  0.73333400  0.46666700  0.40000000  1
  Pt  Pt8  1  0.73333400  0.80000100  0.40000000  1
  Pt  Pt9  1  0.16708728  0.99961922  0.50176649  1
  Pt  Pt10  1  0.16671367  0.33332398  0.50222057  1
  Pt  Pt11  1  0.16705037  0.66745919  0.50176958  1
  Pt  Pt12  1  0.49918566  0.99966618  0.50177112  1
  Pt  Pt13  1  0.50087671  0.33510084  0.50444086  1
  Pt  Pt14  1  0.50082069  0.66492519  0.50442491  1
  Pt  Pt15  1  0.83324733  0.99984014  0.50220650  1
  Pt  Pt16  1  0.83326025  0.33332750  0.50222169  1
  Pt  Pt17  1  0.83075249  0.66492650  0.50442318  1
  Pt  Pt18  1  0.26382670  0.19700390  0.60433770  1
  Pt  Pt19  1  0.26373450  0.53322205  0.60431420  1
  Pt  Pt20  1  0.26640756  0.86619398  0.60544628  1
  Pt  Pt21  1  0.59979193  0.19699290  0.60433618  1
  Pt  Pt22  1  0.59891238  0.53119137  0.61310781  1
  Pt  Pt23  1  0.59977270  0.86926022  0.60430543  1
  Pt  Pt24  1  0.93314849  0.19961181  0.60557170  1
  Pt  Pt25  1  0.93612536  0.53323632  0.60431710  1
  Pt  Pt26  1  0.93614963  0.86933465  0.60429535  1
  O  O27  1  0.59058438  0.51446411  0.69614391  1
