# generated using pymatgen
data_Rh27O
_symmetry_space_group_name_H-M   'P 1'
_cell_length_a   8.03672266
_cell_length_b   8.03669826
_cell_length_c   21.92791400
_cell_angle_alpha   86.49772645
_cell_angle_beta   86.49795137
_cell_angle_gamma   59.99991575
_symmetry_Int_Tables_number   1
_chemical_formula_structural   Rh27O
_chemical_formula_sum   'Rh27 O1'
_cell_volume   1223.49202859
_cell_formula_units_Z   1
loop_
 _symmetry_equiv_pos_site_id
 _symmetry_equiv_pos_as_xyz
  1  'x, y, z'
loop_
 _atom_site_type_symbol
 _atom_site_label
 _atom_site_symmetry_multiplicity
 _atom_site_fract_x
 _atom_site_fract_y
 _atom_site_fract_z
 _atom_site_occupancy
  Rh  Rh0  1  0.06666700  0.06666700  0.40000000  1
  Rh  Rh1  1  0.06666700  0.40000000  0.40000000  1
  Rh  Rh2  1  0.06666700  0.73333300  0.40000000  1
  Rh  Rh3  1  0.40000000  0.06666700  0.40000000  1
  Rh  Rh4  1  0.40000000  0.40000000  0.40000000  1
  Rh  Rh5  1  0.40000000  0.73333300  0.40000000  1
  Rh  Rh6  1  0.73333300  0.06666700  0.40000000  1
  Rh  Rh7  1  0.73333300  0.40000000  0.40000000  1
  Rh  Rh8  1  0.73333300  0.73333300  0.40000000  1
  Rh  Rh9  1  0.16681035  0.16680806  0.49768881  1
  Rh  Rh10  1  0.16692185  0.50096162  0.49766116  1
  Rh  Rh11  1  0.16838653  0.83306173  0.49816619  1
  Rh  Rh12  1  0.50096417  0.16691937  0.49766121  1
  Rh  Rh13  1  0.50184743  0.50184501  0.49933372  1
  Rh  Rh14  1  0.50178580  0.83035915  0.49943395  1
  Rh  Rh15  1  0.83306419  0.16838407  0.49816622  1
  Rh  Rh16  1  0.83036145  0.50178345  0.49943394  1
  Rh  Rh17  1  0.83292479  0.83292232  0.49819690  1
  Rh  Rh18  1  0.26742599  0.26742086  0.59534629  1
  Rh  Rh19  1  0.26413802  0.60121490  0.59653179  1
  Rh  Rh20  1  0.26368081  0.93712105  0.59658547  1
  Rh  Rh21  1  0.60121993  0.26413317  0.59653178  1
  Rh  Rh22  1  0.59947085  0.59946562  0.60406731  1
  Rh  Rh23  1  0.60084494  0.93751804  0.59653814  1
  Rh  Rh24  1  0.93712585  0.26367616  0.59658549  1
  Rh  Rh25  1  0.93752303  0.60083977  0.59653814  1
  Rh  Rh26  1  0.93391429  0.93390937  0.59611624  1
  O  O27  1  0.59826312  0.59826172  0.68472893  1
