# generated using pymatgen
data_Pt27CO
_symmetry_space_group_name_H-M   'P 1'
_cell_length_a   8.30563200
_cell_length_b   8.30548099
_cell_length_c   22.66204900
_cell_angle_alpha   86.50247764
_cell_angle_beta   89.99826160
_cell_angle_gamma   119.99933191
_symmetry_Int_Tables_number   1
_chemical_formula_structural   Pt27CO
_chemical_formula_sum   'Pt27 C1 O1'
_cell_volume   1350.48407360
_cell_formula_units_Z   1
loop_
 _symmetry_equiv_pos_site_id
 _symmetry_equiv_pos_as_xyz
  1  'x, y, z'
loop_
 _atom_site_type_symbol
 _atom_site_label
 _atom_site_symmetry_multiplicity
 _atom_site_fract_x
 _atom_site_fract_y
 _atom_site_fract_z
 _atom_site_occupancy
  Pt  Pt0  1  0.06666700  0.13333400  0.40000000  1
  Pt  Pt1  1  0.06666700  0.46666700  0.40000000  1
  Pt  Pt2  1  0.06666700  0.80000100  0.40000000  1
  Pt  Pt3  1  0.40000000  0.13333400  0.40000000  1
  Pt  Pt4  1  0.40000000  0.46666700  0.40000000  1
  Pt  Pt5  1  0.40000000  0.80000100  0.40000000  1
  Pt  Pt6  1  0.73333400  0.13333400  0.40000000  1
  Pt  Pt7  1  0.73333400  0.46666700  0.40000000  1
  Pt  Pt8  1  0.73333400  0.80000100  0.40000000  1
  Pt  Pt9  1  0.16688127  0.99912535  0.50160175  1
  Pt  Pt10  1  0.16693434  0.33294773  0.50204004  1
  Pt  Pt11  1  0.16673775  0.66679847  0.50167653  1
  Pt  Pt12  1  0.49913893  0.99923352  0.50165075  1
  Pt  Pt13  1  0.50005545  0.33329004  0.50451518  1
  Pt  Pt14  1  0.49996089  0.66518784  0.50424679  1
  Pt  Pt15  1  0.83290542  0.99893570  0.50204015  1
  Pt  Pt16  1  0.83290171  0.33294705  0.50204271  1
  Pt  Pt17  1  0.83177277  0.66500499  0.50445085  1
  Pt  Pt18  1  0.26218111  0.19441380  0.60449260  1
  Pt  Pt19  1  0.26215241  0.53170233  0.60440101  1
  Pt  Pt20  1  0.26613990  0.86491609  0.60524429  1
  Pt  Pt21  1  0.59960131  0.19466300  0.60454861  1
  Pt  Pt22  1  0.59893547  0.53014711  0.61137560  1
  Pt  Pt23  1  0.59968303  0.86939969  0.60439405  1
  Pt  Pt24  1  0.93280115  0.19856347  0.60507470  1
  Pt  Pt25  1  0.93664959  0.53169122  0.60453306  1
  Pt  Pt26  1  0.93705591  0.86934253  0.60445072  1
  O  O27  1  0.57863933  0.51284560  0.74298216  1
  C  C28  1  0.58669559  0.51952007  0.69155580  1
