# generated using pymatgen
data_Cu27H
_symmetry_space_group_name_H-M   'P 1'
_cell_length_a   7.56931204
_cell_length_b   6.17958932
_cell_length_c   26.20755800
_cell_angle_alpha   89.93253853
_cell_angle_beta   90.00615399
_cell_angle_gamma   90.00637696
_symmetry_Int_Tables_number   1
_chemical_formula_structural   Cu27H
_chemical_formula_sum   'Cu27 H1'
_cell_volume   1225.86394768
_cell_formula_units_Z   1
loop_
 _symmetry_equiv_pos_site_id
 _symmetry_equiv_pos_as_xyz
  1  'x, y, z'
loop_
 _atom_site_type_symbol
 _atom_site_label
 _atom_site_symmetry_multiplicity
 _atom_site_fract_x
 _atom_site_fract_y
 _atom_site_fract_z
 _atom_site_occupancy
  Cu  Cu0  1  0.00000100  0.70833300  0.43055600  1
  Cu  Cu1  1  0.33333400  0.70833300  0.43055600  1
  Cu  Cu2  1  0.66666700  0.70833300  0.43055600  1
  Cu  Cu3  1  0.00000100  0.04166600  0.48611100  1
  Cu  Cu4  1  0.33333400  0.04166600  0.48611100  1
  Cu  Cu5  1  0.66666700  0.04166600  0.48611100  1
  Cu  Cu6  1  0.99988697  0.37059735  0.54236611  1
  Cu  Cu7  1  0.33334587  0.36999399  0.54250137  1
  Cu  Cu8  1  0.66677210  0.37061132  0.54236676  1
  Cu  Cu9  1  0.16666700  0.37500000  0.45833300  1
  Cu  Cu10  1  0.50000000  0.37500000  0.45833300  1
  Cu  Cu11  1  0.83333400  0.37500000  0.45833300  1
  Cu  Cu12  1  0.16748077  0.70746541  0.51389637  1
  Cu  Cu13  1  0.49917049  0.70747066  0.51389577  1
  Cu  Cu14  1  0.83334382  0.70852756  0.51302338  1
  Cu  Cu15  1  0.99843421  0.69333678  0.59910807  1
  Cu  Cu16  1  0.33334925  0.69137841  0.60009829  1
  Cu  Cu17  1  0.66822135  0.69334555  0.59910949  1
  Cu  Cu18  1  0.99955280  0.03101148  0.65130108  1
  Cu  Cu19  1  0.33334885  0.02843877  0.65122088  1
  Cu  Cu20  1  0.66710864  0.03103309  0.65130293  1
  Cu  Cu21  1  0.16544635  0.03131335  0.56955793  1
  Cu  Cu22  1  0.50123891  0.03131345  0.56955747  1
  Cu  Cu23  1  0.83334428  0.02919697  0.57031132  1
  Cu  Cu24  1  0.16684445  0.36224989  0.62673643  1
  Cu  Cu25  1  0.49982874  0.36226073  0.62674036  1
  Cu  Cu26  1  0.83335120  0.36460503  0.62679975  1
  H  H27  1  0.33333843  0.76438249  0.65946933  1
