# generated using pymatgen
data_Rh27CO2
_symmetry_space_group_name_H-M   'P 1'
_cell_length_a   8.03672266
_cell_length_b   8.03669826
_cell_length_c   21.92791400
_cell_angle_alpha   86.49772645
_cell_angle_beta   86.49795137
_cell_angle_gamma   59.99991575
_symmetry_Int_Tables_number   1
_chemical_formula_structural   Rh27CO2
_chemical_formula_sum   'Rh27 C1 O2'
_cell_volume   1223.49202859
_cell_formula_units_Z   1
loop_
 _symmetry_equiv_pos_site_id
 _symmetry_equiv_pos_as_xyz
  1  'x, y, z'
loop_
 _atom_site_type_symbol
 _atom_site_label
 _atom_site_symmetry_multiplicity
 _atom_site_fract_x
 _atom_site_fract_y
 _atom_site_fract_z
 _atom_site_occupancy
  Rh  Rh0  1  0.06666700  0.06666700  0.40000000  1
  Rh  Rh1  1  0.06666700  0.40000000  0.40000000  1
  Rh  Rh2  1  0.06666700  0.73333300  0.40000000  1
  Rh  Rh3  1  0.40000000  0.06666700  0.40000000  1
  Rh  Rh4  1  0.40000000  0.40000000  0.40000000  1
  Rh  Rh5  1  0.40000000  0.73333300  0.40000000  1
  Rh  Rh6  1  0.73333300  0.06666700  0.40000000  1
  Rh  Rh7  1  0.73333300  0.40000000  0.40000000  1
  Rh  Rh8  1  0.73333300  0.73333300  0.40000000  1
  Rh  Rh9  1  0.16646708  0.16678983  0.49914032  1
  Rh  Rh10  1  0.16693395  0.50028988  0.49846416  1
  Rh  Rh11  1  0.16761596  0.83328313  0.49875072  1
  Rh  Rh12  1  0.50049961  0.16660116  0.49910229  1
  Rh  Rh13  1  0.50125430  0.50084588  0.49874407  1
  Rh  Rh14  1  0.50113574  0.83145080  0.49878545  1
  Rh  Rh15  1  0.83303341  0.16769695  0.49887272  1
  Rh  Rh16  1  0.83182190  0.50078667  0.49873335  1
  Rh  Rh17  1  0.83274484  0.83331818  0.49880112  1
  Rh  Rh18  1  0.26660813  0.26800760  0.59736860  1
  Rh  Rh19  1  0.26569622  0.60080037  0.59712933  1
  Rh  Rh20  1  0.26598405  0.93444505  0.59722490  1
  Rh  Rh21  1  0.60045877  0.26704669  0.59736628  1
  Rh  Rh22  1  0.59972744  0.60088688  0.60197230  1
  Rh  Rh23  1  0.59997834  0.93455047  0.59744235  1
  Rh  Rh24  1  0.93356809  0.26674412  0.59749707  1
  Rh  Rh25  1  0.93544569  0.60066306  0.59704241  1
  Rh  Rh26  1  0.93378075  0.93351247  0.59705690  1
  C  C27  1  0.59911589  0.59702091  0.69474914  1
  O  O28  1  0.51898438  0.75924612  0.71865928  1
  O  O29  1  0.67887932  0.43347281  0.72125355  1
