# generated using pymatgen
data_Rh27N2
_symmetry_space_group_name_H-M   'P 1'
_cell_length_a   8.03672266
_cell_length_b   8.03669826
_cell_length_c   21.92791400
_cell_angle_alpha   86.49772645
_cell_angle_beta   86.49795137
_cell_angle_gamma   59.99991575
_symmetry_Int_Tables_number   1
_chemical_formula_structural   Rh27N2
_chemical_formula_sum   'Rh27 N2'
_cell_volume   1223.49202859
_cell_formula_units_Z   1
loop_
 _symmetry_equiv_pos_site_id
 _symmetry_equiv_pos_as_xyz
  1  'x, y, z'
loop_
 _atom_site_type_symbol
 _atom_site_label
 _atom_site_symmetry_multiplicity
 _atom_site_fract_x
 _atom_site_fract_y
 _atom_site_fract_z
 _atom_site_occupancy
  Rh  Rh0  1  0.06666700  0.06666700  0.40000000  1
  Rh  Rh1  1  0.06666700  0.40000000  0.40000000  1
  Rh  Rh2  1  0.06666700  0.73333300  0.40000000  1
  Rh  Rh3  1  0.40000000  0.06666700  0.40000000  1
  Rh  Rh4  1  0.40000000  0.40000000  0.40000000  1
  Rh  Rh5  1  0.40000000  0.73333300  0.40000000  1
  Rh  Rh6  1  0.73333300  0.06666700  0.40000000  1
  Rh  Rh7  1  0.73333300  0.40000000  0.40000000  1
  Rh  Rh8  1  0.73333300  0.73333300  0.40000000  1
  Rh  Rh9  1  0.16698221  0.16698016  0.49813819  1
  Rh  Rh10  1  0.16707913  0.50025302  0.49811145  1
  Rh  Rh11  1  0.16749496  0.83331463  0.49832639  1
  Rh  Rh12  1  0.50025518  0.16707699  0.49811146  1
  Rh  Rh13  1  0.50180676  0.50180455  0.49924870  1
  Rh  Rh14  1  0.50168483  0.83050676  0.49911357  1
  Rh  Rh15  1  0.83331678  0.16749278  0.49832643  1
  Rh  Rh16  1  0.83050880  0.50168272  0.49911359  1
  Rh  Rh17  1  0.83333799  0.83333580  0.49829259  1
  Rh  Rh18  1  0.26720161  0.26719705  0.59670813  1
  Rh  Rh19  1  0.26436619  0.60082499  0.59666613  1
  Rh  Rh20  1  0.26416916  0.93654153  0.59660854  1
  Rh  Rh21  1  0.60082945  0.26436182  0.59666612  1
  Rh  Rh22  1  0.59980572  0.59980138  0.60510144  1
  Rh  Rh23  1  0.60083081  0.93679182  0.59654590  1
  Rh  Rh24  1  0.93654591  0.26416495  0.59660858  1
  Rh  Rh25  1  0.93679630  0.60082617  0.59654592  1
  Rh  Rh26  1  0.93381643  0.93381194  0.59673285  1
  N  N27  1  0.59441081  0.59440724  0.69204738  1
  N  N28  1  0.59290434  0.59290227  0.74353180  1
