# generated using pymatgen
data_Ir4O7
_symmetry_space_group_name_H-M   'P 1'
_cell_length_a   6.34574200
_cell_length_b   6.38387200
_cell_length_c   25.53556900
_cell_angle_alpha   90.00000000
_cell_angle_beta   90.00000000
_cell_angle_gamma   90.00000000
_symmetry_Int_Tables_number   1
_chemical_formula_structural   Ir4O7
_chemical_formula_sum   'Ir12 O21'
_cell_volume   1034.45623375
_cell_formula_units_Z   3
loop_
 _symmetry_equiv_pos_site_id
 _symmetry_equiv_pos_as_xyz
  1  'x, y, z'
loop_
 _atom_site_type_symbol
 _atom_site_label
 _atom_site_symmetry_multiplicity
 _atom_site_fract_x
 _atom_site_fract_y
 _atom_site_fract_z
 _atom_site_occupancy
  Ir  Ir0  1  0.25000000  0.00000000  0.37500000  1
  Ir  Ir1  1  0.75000000  0.00000000  0.37500000  1
  Ir  Ir2  1  0.00000000  0.50000000  0.37500100  1
  Ir  Ir3  1  0.50000000  0.50000000  0.37500100  1
  Ir  Ir4  1  0.25194713  0.50000431  0.50049188  1
  Ir  Ir5  1  0.74804130  0.50000481  0.50049260  1
  Ir  Ir6  1  0.99999635  0.00000466  0.50000278  1
  Ir  Ir7  1  0.49999660  0.00000497  0.49973378  1
  Ir  Ir8  1  0.25230786  0.00003617  0.62314461  1
  Ir  Ir9  1  0.74768583  0.00003629  0.62314415  1
  Ir  Ir10  1  0.99999334  0.50003953  0.62451775  1
  Ir  Ir11  1  0.49998964  0.50002967  0.63111950  1
  O  O12  1  0.25000000  0.69160400  0.37500200  1
  O  O13  1  0.75000000  0.69160400  0.37500200  1
  O  O14  1  0.25000000  0.30839600  0.37500200  1
  O  O15  1  0.75000000  0.30839600  0.37500200  1
  O  O16  1  0.00000000  0.50000000  0.45209900  1
  O  O17  1  0.50000000  0.50000000  0.45209900  1
  O  O18  1  0.25014838  0.19177628  0.50040024  1
  O  O19  1  0.74984347  0.19177680  0.50040093  1
  O  O20  1  0.00000000  0.00000000  0.42290400  1
  O  O21  1  0.50000000  0.00000000  0.42290400  1
  O  O22  1  0.25014620  0.80823157  0.50039861  1
  O  O23  1  0.74984499  0.80823159  0.50039938  1
  O  O24  1  0.99999951  0.00001186  0.57796911  1
  O  O25  1  0.49999847  0.00001105  0.57785543  1
  O  O26  1  0.24889879  0.69417094  0.62914424  1
  O  O27  1  0.75108575  0.69417010  0.62914339  1
  O  O28  1  0.99999223  0.49998508  0.54803544  1
  O  O29  1  0.49998670  0.50001260  0.55031764  1
  O  O30  1  0.24889933  0.30589979  0.62913945  1
  O  O31  1  0.75108613  0.30590124  0.62913865  1
  O  O32  1  0.49997842  0.50000950  0.70307335  1
