# generated using pymatgen
data_HRh27CO
_symmetry_space_group_name_H-M   'P 1'
_cell_length_a   8.03672266
_cell_length_b   8.03669826
_cell_length_c   21.92791400
_cell_angle_alpha   86.49772645
_cell_angle_beta   86.49795137
_cell_angle_gamma   59.99991575
_symmetry_Int_Tables_number   1
_chemical_formula_structural   HRh27CO
_chemical_formula_sum   'H1 Rh27 C1 O1'
_cell_volume   1223.49202859
_cell_formula_units_Z   1
loop_
 _symmetry_equiv_pos_site_id
 _symmetry_equiv_pos_as_xyz
  1  'x, y, z'
loop_
 _atom_site_type_symbol
 _atom_site_label
 _atom_site_symmetry_multiplicity
 _atom_site_fract_x
 _atom_site_fract_y
 _atom_site_fract_z
 _atom_site_occupancy
  Rh  Rh0  1  0.06666700  0.06666700  0.40000000  1
  Rh  Rh1  1  0.06666700  0.40000000  0.40000000  1
  Rh  Rh2  1  0.06666700  0.73333300  0.40000000  1
  Rh  Rh3  1  0.40000000  0.06666700  0.40000000  1
  Rh  Rh4  1  0.40000000  0.40000000  0.40000000  1
  Rh  Rh5  1  0.40000000  0.73333300  0.40000000  1
  Rh  Rh6  1  0.73333300  0.06666700  0.40000000  1
  Rh  Rh7  1  0.73333300  0.40000000  0.40000000  1
  Rh  Rh8  1  0.73333300  0.73333300  0.40000000  1
  Rh  Rh9  1  0.16675999  0.16740749  0.49862860  1
  Rh  Rh10  1  0.16345094  0.50238926  0.50011385  1
  Rh  Rh11  1  0.16690535  0.83331579  0.49866578  1
  Rh  Rh12  1  0.49937580  0.16830318  0.49786325  1
  Rh  Rh13  1  0.50044232  0.50300033  0.49884731  1
  Rh  Rh14  1  0.50114105  0.83099110  0.49881787  1
  Rh  Rh15  1  0.83276530  0.16758235  0.49821601  1
  Rh  Rh16  1  0.83094627  0.50225493  0.49868740  1
  Rh  Rh17  1  0.83339628  0.83184537  0.49926805  1
  Rh  Rh18  1  0.26802086  0.26654492  0.59701370  1
  Rh  Rh19  1  0.26745364  0.60257614  0.59743985  1
  Rh  Rh20  1  0.26496838  0.93534074  0.59726411  1
  Rh  Rh21  1  0.59965915  0.26754214  0.59676016  1
  Rh  Rh22  1  0.60133238  0.60167475  0.60519674  1
  Rh  Rh23  1  0.59656313  0.94097790  0.59665405  1
  Rh  Rh24  1  0.93558704  0.26307005  0.59640515  1
  Rh  Rh25  1  0.93444537  0.60072532  0.60031483  1
  Rh  Rh26  1  0.93285541  0.93649693  0.59684952  1
  C  C27  1  0.67424677  0.60129887  0.68665933  1
  H  H28  1  0.58116940  0.60682373  0.72710018  1
  O  O29  1  0.82995494  0.59529889  0.69743038  1
