# generated using pymatgen
data_HPt27O
_symmetry_space_group_name_H-M   'P 1'
_cell_length_a   8.30563200
_cell_length_b   8.30548099
_cell_length_c   22.66204900
_cell_angle_alpha   86.50247764
_cell_angle_beta   89.99826160
_cell_angle_gamma   119.99933191
_symmetry_Int_Tables_number   1
_chemical_formula_structural   HPt27O
_chemical_formula_sum   'H1 Pt27 O1'
_cell_volume   1350.48407360
_cell_formula_units_Z   1
loop_
 _symmetry_equiv_pos_site_id
 _symmetry_equiv_pos_as_xyz
  1  'x, y, z'
loop_
 _atom_site_type_symbol
 _atom_site_label
 _atom_site_symmetry_multiplicity
 _atom_site_fract_x
 _atom_site_fract_y
 _atom_site_fract_z
 _atom_site_occupancy
  Pt  Pt0  1  0.06666700  0.13333400  0.40000000  1
  Pt  Pt1  1  0.06666700  0.46666700  0.40000000  1
  Pt  Pt2  1  0.06666700  0.80000100  0.40000000  1
  Pt  Pt3  1  0.40000000  0.13333400  0.40000000  1
  Pt  Pt4  1  0.40000000  0.46666700  0.40000000  1
  Pt  Pt5  1  0.40000000  0.80000100  0.40000000  1
  Pt  Pt6  1  0.73333400  0.13333400  0.40000000  1
  Pt  Pt7  1  0.73333400  0.46666700  0.40000000  1
  Pt  Pt8  1  0.73333400  0.80000100  0.40000000  1
  Pt  Pt9  1  0.16715231  0.99950006  0.50156368  1
  Pt  Pt10  1  0.16648436  0.33316336  0.50200117  1
  Pt  Pt11  1  0.16709735  0.66771952  0.50156077  1
  Pt  Pt12  1  0.49884498  0.99937546  0.50157534  1
  Pt  Pt13  1  0.50073887  0.33477055  0.50393311  1
  Pt  Pt14  1  0.50070170  0.66495996  0.50387745  1
  Pt  Pt15  1  0.83323123  0.99999190  0.50198898  1
  Pt  Pt16  1  0.83323649  0.33319209  0.50201090  1
  Pt  Pt17  1  0.83085711  0.66508848  0.50388799  1
  Pt  Pt18  1  0.26366208  0.19682261  0.60381790  1
  Pt  Pt19  1  0.26368713  0.53311493  0.60373844  1
  Pt  Pt20  1  0.26633807  0.86602344  0.60551364  1
  Pt  Pt21  1  0.59981623  0.19666230  0.60383848  1
  Pt  Pt22  1  0.59908846  0.53126355  0.61098227  1
  Pt  Pt23  1  0.59980383  0.86910574  0.60373038  1
  Pt  Pt24  1  0.93299390  0.19930612  0.60558649  1
  Pt  Pt25  1  0.93613353  0.53314300  0.60375708  1
  Pt  Pt26  1  0.93614770  0.86923992  0.60372139  1
  O  O27  1  0.59009563  0.51370057  0.69404622  1
  H  H28  1  0.58530742  0.50388852  0.83317318  1
