# generated using pymatgen
data_Pt27O
_symmetry_space_group_name_H-M   'P 1'
_cell_length_a   8.30563200
_cell_length_b   8.30548099
_cell_length_c   22.66204900
_cell_angle_alpha   86.50247764
_cell_angle_beta   89.99826160
_cell_angle_gamma   119.99933191
_symmetry_Int_Tables_number   1
_chemical_formula_structural   Pt27O
_chemical_formula_sum   'Pt27 O1'
_cell_volume   1350.48407360
_cell_formula_units_Z   1
loop_
 _symmetry_equiv_pos_site_id
 _symmetry_equiv_pos_as_xyz
  1  'x, y, z'
loop_
 _atom_site_type_symbol
 _atom_site_label
 _atom_site_symmetry_multiplicity
 _atom_site_fract_x
 _atom_site_fract_y
 _atom_site_fract_z
 _atom_site_occupancy
  Pt  Pt0  1  0.06666700  0.13333400  0.40000000  1
  Pt  Pt1  1  0.06666700  0.46666700  0.40000000  1
  Pt  Pt2  1  0.06666700  0.80000100  0.40000000  1
  Pt  Pt3  1  0.40000000  0.13333400  0.40000000  1
  Pt  Pt4  1  0.40000000  0.46666700  0.40000000  1
  Pt  Pt5  1  0.40000000  0.80000100  0.40000000  1
  Pt  Pt6  1  0.73333400  0.13333400  0.40000000  1
  Pt  Pt7  1  0.73333400  0.46666700  0.40000000  1
  Pt  Pt8  1  0.73333400  0.80000100  0.40000000  1
  Pt  Pt9  1  0.16722341  0.99962577  0.50156675  1
  Pt  Pt10  1  0.16681714  0.33338781  0.50201942  1
  Pt  Pt11  1  0.16720357  0.66773661  0.50157001  1
  Pt  Pt12  1  0.49905220  0.99963013  0.50156925  1
  Pt  Pt13  1  0.50095934  0.33525992  0.50430020  1
  Pt  Pt14  1  0.50095069  0.66493453  0.50427878  1
  Pt  Pt15  1  0.83322972  0.99981392  0.50200572  1
  Pt  Pt16  1  0.83323601  0.33338821  0.50201742  1
  Pt  Pt17  1  0.83064012  0.66493379  0.50427540  1
  Pt  Pt18  1  0.26371568  0.19693368  0.60389922  1
  Pt  Pt19  1  0.26367220  0.53342354  0.60388046  1
  Pt  Pt20  1  0.26651825  0.86640145  0.60522322  1
  Pt  Pt21  1  0.59987590  0.19695052  0.60389845  1
  Pt  Pt22  1  0.59903384  0.53142477  0.61244394  1
  Pt  Pt23  1  0.59987539  0.86969624  0.60384629  1
  Pt  Pt24  1  0.93317485  0.19969237  0.60520539  1
  Pt  Pt25  1  0.93639946  0.53343506  0.60387474  1
  Pt  Pt26  1  0.93646201  0.86969307  0.60384317  1
  O  O27  1  0.59109429  0.51556668  0.69495980  1
