# generated using pymatgen
data_H(Ir3O5)4
_symmetry_space_group_name_H-M   'P 1'
_cell_length_a   6.34574200
_cell_length_b   6.38387200
_cell_length_c   25.53556900
_cell_angle_alpha   90.00000000
_cell_angle_beta   90.00000000
_cell_angle_gamma   90.00000000
_symmetry_Int_Tables_number   1
_chemical_formula_structural   H(Ir3O5)4
_chemical_formula_sum   'Ir12 H1 O20'
_cell_volume   1034.45623375
_cell_formula_units_Z   1
loop_
 _symmetry_equiv_pos_site_id
 _symmetry_equiv_pos_as_xyz
  1  'x, y, z'
loop_
 _atom_site_type_symbol
 _atom_site_label
 _atom_site_symmetry_multiplicity
 _atom_site_fract_x
 _atom_site_fract_y
 _atom_site_fract_z
 _atom_site_occupancy
  Ir  Ir0  1  0.25000000  0.00000000  0.37500000  1
  Ir  Ir1  1  0.75000000  0.00000000  0.37500000  1
  Ir  Ir2  1  0.00000000  0.50000000  0.37500100  1
  Ir  Ir3  1  0.50000000  0.50000000  0.37500100  1
  Ir  Ir4  1  0.25194539  0.50000024  0.50032294  1
  Ir  Ir5  1  0.74804069  0.50000072  0.50032343  1
  Ir  Ir6  1  0.99999673  0.99999999  0.50026869  1
  Ir  Ir7  1  0.49999690  0.99999989  0.50001030  1
  Ir  Ir8  1  0.25328749  0.00002337  0.62414523  1
  Ir  Ir9  1  0.74670959  0.00002347  0.62414468  1
  Ir  Ir10  1  0.99999920  0.50002420  0.62483327  1
  Ir  Ir11  1  0.49999732  0.50002201  0.63210513  1
  O  O12  1  0.25000000  0.69160400  0.37500200  1
  O  O13  1  0.75000000  0.69160400  0.37500200  1
  O  O14  1  0.25000000  0.30839600  0.37500200  1
  O  O15  1  0.75000000  0.30839600  0.37500200  1
  O  O16  1  0.00000000  0.50000000  0.45209900  1
  O  O17  1  0.50000000  0.50000000  0.45209900  1
  O  O18  1  0.25003737  0.19199501  0.50054205  1
  O  O19  1  0.74995512  0.19199532  0.50054232  1
  O  O20  1  0.00000000  0.00000000  0.42290400  1
  O  O21  1  0.50000000  0.00000000  0.42290400  1
  O  O22  1  0.25003600  0.80800456  0.50054084  1
  O  O23  1  0.74995586  0.80800469  0.50054112  1
  O  O24  1  0.00000036  0.00000393  0.57843935  1
  O  O25  1  0.49999907  0.99999899  0.57803384  1
  O  O26  1  0.24763184  0.69480806  0.63131290  1
  O  O27  1  0.75236265  0.69480802  0.63131081  1
  O  O28  1  0.99998854  0.49998817  0.54799124  1
  O  O29  1  0.49998676  0.49999916  0.54889843  1
  O  O30  1  0.24763519  0.30523770  0.63130940  1
  O  O31  1  0.75235891  0.30523718  0.63130724  1
  H  H32  1  0.50000562  0.50002433  0.69525380  1
