# generated using pymatgen
data_HRh27N2
_symmetry_space_group_name_H-M   'P 1'
_cell_length_a   8.03672266
_cell_length_b   8.03669826
_cell_length_c   21.92791400
_cell_angle_alpha   86.49772645
_cell_angle_beta   86.49795137
_cell_angle_gamma   59.99991575
_symmetry_Int_Tables_number   1
_chemical_formula_structural   HRh27N2
_chemical_formula_sum   'H1 Rh27 N2'
_cell_volume   1223.49202859
_cell_formula_units_Z   1
loop_
 _symmetry_equiv_pos_site_id
 _symmetry_equiv_pos_as_xyz
  1  'x, y, z'
loop_
 _atom_site_type_symbol
 _atom_site_label
 _atom_site_symmetry_multiplicity
 _atom_site_fract_x
 _atom_site_fract_y
 _atom_site_fract_z
 _atom_site_occupancy
  Rh  Rh0  1  0.06666700  0.06666700  0.40000000  1
  Rh  Rh1  1  0.06666700  0.40000000  0.40000000  1
  Rh  Rh2  1  0.06666700  0.73333300  0.40000000  1
  Rh  Rh3  1  0.40000000  0.06666700  0.40000000  1
  Rh  Rh4  1  0.40000000  0.40000000  0.40000000  1
  Rh  Rh5  1  0.40000000  0.73333300  0.40000000  1
  Rh  Rh6  1  0.73333300  0.06666700  0.40000000  1
  Rh  Rh7  1  0.73333300  0.40000000  0.40000000  1
  Rh  Rh8  1  0.73333300  0.73333300  0.40000000  1
  Rh  Rh9  1  0.16696918  0.16728629  0.49798729  1
  Rh  Rh10  1  0.16718576  0.50041776  0.49798451  1
  Rh  Rh11  1  0.16753355  0.83345760  0.49831574  1
  Rh  Rh12  1  0.50039150  0.16730432  0.49803051  1
  Rh  Rh13  1  0.50232496  0.50237534  0.49974438  1
  Rh  Rh14  1  0.50200869  0.83033322  0.49909096  1
  Rh  Rh15  1  0.83344752  0.16756242  0.49838247  1
  Rh  Rh16  1  0.82938474  0.50241091  0.49976212  1
  Rh  Rh17  1  0.83352267  0.83344913  0.49829857  1
  Rh  Rh18  1  0.26747932  0.26700190  0.59659681  1
  Rh  Rh19  1  0.26364915  0.60099246  0.59672436  1
  Rh  Rh20  1  0.26397994  0.93710278  0.59658166  1
  Rh  Rh21  1  0.60132260  0.26270206  0.59674132  1
  Rh  Rh22  1  0.59984342  0.59749318  0.60821295  1
  Rh  Rh23  1  0.60095414  0.93737504  0.59653471  1
  Rh  Rh24  1  0.93818813  0.26258953  0.59669176  1
  Rh  Rh25  1  0.93812890  0.60083438  0.59663573  1
  Rh  Rh26  1  0.93412929  0.93368359  0.59687182  1
  N  N27  1  0.59693842  0.59387247  0.69025200  1
  N  N28  1  0.58095732  0.59173035  0.74376939  1
  H  H29  1  0.67449389  0.59019200  0.77539143  1
