# generated using pymatgen
data_H3Pt27N
_symmetry_space_group_name_H-M   'P 1'
_cell_length_a   8.30563200
_cell_length_b   8.30548099
_cell_length_c   22.66204900
_cell_angle_alpha   86.50247764
_cell_angle_beta   89.99826160
_cell_angle_gamma   119.99933191
_symmetry_Int_Tables_number   1
_chemical_formula_structural   H3Pt27N
_chemical_formula_sum   'H3 Pt27 N1'
_cell_volume   1350.48407360
_cell_formula_units_Z   1
loop_
 _symmetry_equiv_pos_site_id
 _symmetry_equiv_pos_as_xyz
  1  'x, y, z'
loop_
 _atom_site_type_symbol
 _atom_site_label
 _atom_site_symmetry_multiplicity
 _atom_site_fract_x
 _atom_site_fract_y
 _atom_site_fract_z
 _atom_site_occupancy
  Pt  Pt0  1  0.06666700  0.13333400  0.40000000  1
  Pt  Pt1  1  0.06666700  0.46666700  0.40000000  1
  Pt  Pt2  1  0.06666700  0.80000100  0.40000000  1
  Pt  Pt3  1  0.40000000  0.13333400  0.40000000  1
  Pt  Pt4  1  0.40000000  0.46666700  0.40000000  1
  Pt  Pt5  1  0.40000000  0.80000100  0.40000000  1
  Pt  Pt6  1  0.73333400  0.13333400  0.40000000  1
  Pt  Pt7  1  0.73333400  0.46666700  0.40000000  1
  Pt  Pt8  1  0.73333400  0.80000100  0.40000000  1
  Pt  Pt9  1  0.16709541  0.00003434  0.50197493  1
  Pt  Pt10  1  0.16664635  0.33350774  0.50241395  1
  Pt  Pt11  1  0.16700166  0.66754659  0.50197678  1
  Pt  Pt12  1  0.49937764  0.00017296  0.50196375  1
  Pt  Pt13  1  0.50016780  0.33388420  0.50425846  1
  Pt  Pt14  1  0.49998956  0.66623908  0.50404044  1
  Pt  Pt15  1  0.83339928  0.00018429  0.50235982  1
  Pt  Pt16  1  0.83320964  0.33340755  0.50242712  1
  Pt  Pt17  1  0.83260687  0.66620434  0.50409722  1
  Pt  Pt18  1  0.26423111  0.19790467  0.60483561  1
  Pt  Pt19  1  0.26451177  0.53348901  0.60473274  1
  Pt  Pt20  1  0.26646828  0.86667518  0.60548930  1
  Pt  Pt21  1  0.59983131  0.19825480  0.60491568  1
  Pt  Pt22  1  0.59932676  0.53250346  0.61026361  1
  Pt  Pt23  1  0.60000914  0.86945887  0.60450144  1
  Pt  Pt24  1  0.93313645  0.20003485  0.60572637  1
  Pt  Pt25  1  0.93546060  0.53341806  0.60474153  1
  Pt  Pt26  1  0.93538325  0.86899079  0.60465360  1
  N  N27  1  0.59073930  0.51783664  0.70247948  1
  H  H28  1  0.72011141  0.55431919  0.71824197  1
  H  H29  1  0.55112735  0.60829839  0.71727608  1
  H  H30  1  0.49691274  0.38483783  0.71932691  1
