# generated using pymatgen
data_Rh27O
_symmetry_space_group_name_H-M   'P 1'
_cell_length_a   8.03672266
_cell_length_b   8.03669826
_cell_length_c   21.92791400
_cell_angle_alpha   86.49772645
_cell_angle_beta   86.49795137
_cell_angle_gamma   59.99991575
_symmetry_Int_Tables_number   1
_chemical_formula_structural   Rh27O
_chemical_formula_sum   'Rh27 O1'
_cell_volume   1223.49202859
_cell_formula_units_Z   1
loop_
 _symmetry_equiv_pos_site_id
 _symmetry_equiv_pos_as_xyz
  1  'x, y, z'
loop_
 _atom_site_type_symbol
 _atom_site_label
 _atom_site_symmetry_multiplicity
 _atom_site_fract_x
 _atom_site_fract_y
 _atom_site_fract_z
 _atom_site_occupancy
  Rh  Rh0  1  0.06666700  0.06666700  0.40000000  1
  Rh  Rh1  1  0.06666700  0.40000000  0.40000000  1
  Rh  Rh2  1  0.06666700  0.73333300  0.40000000  1
  Rh  Rh3  1  0.40000000  0.06666700  0.40000000  1
  Rh  Rh4  1  0.40000000  0.40000000  0.40000000  1
  Rh  Rh5  1  0.40000000  0.73333300  0.40000000  1
  Rh  Rh6  1  0.73333300  0.06666700  0.40000000  1
  Rh  Rh7  1  0.73333300  0.40000000  0.40000000  1
  Rh  Rh8  1  0.73333300  0.73333300  0.40000000  1
  Rh  Rh9  1  0.16703467  0.16703263  0.49719043  1
  Rh  Rh10  1  0.16766799  0.50124737  0.49916853  1
  Rh  Rh11  1  0.16767243  0.83153272  0.49917350  1
  Rh  Rh12  1  0.50124942  0.16766594  0.49916855  1
  Rh  Rh13  1  0.50040183  0.50039979  0.49690360  1
  Rh  Rh14  1  0.50125220  0.83152927  0.49917352  1
  Rh  Rh15  1  0.83153474  0.16767041  0.49917351  1
  Rh  Rh16  1  0.83153135  0.50125007  0.49917352  1
  Rh  Rh17  1  0.83358394  0.83358190  0.49829021  1
  Rh  Rh18  1  0.26535408  0.26534972  0.59653515  1
  Rh  Rh19  1  0.26274879  0.60200209  0.60055777  1
  Rh  Rh20  1  0.26535463  0.93741476  0.59653857  1
  Rh  Rh21  1  0.60200637  0.26274460  0.60055773  1
  Rh  Rh22  1  0.60201394  0.60200959  0.60056771  1
  Rh  Rh23  1  0.60030283  0.93378796  0.59722964  1
  Rh  Rh24  1  0.93741907  0.26535034  0.59653860  1
  Rh  Rh25  1  0.93379216  0.60029856  0.59722966  1
  Rh  Rh26  1  0.93379871  0.93379456  0.59723233  1
  O  O27  1  0.48242945  0.48242444  0.65896780  1
