# generated using pymatgen
data_H(Ir3O5)4
_symmetry_space_group_name_H-M   'P 1'
_cell_length_a   6.34574200
_cell_length_b   6.38387200
_cell_length_c   25.53556900
_cell_angle_alpha   90.00000000
_cell_angle_beta   90.00000000
_cell_angle_gamma   90.00000000
_symmetry_Int_Tables_number   1
_chemical_formula_structural   H(Ir3O5)4
_chemical_formula_sum   'Ir12 H1 O20'
_cell_volume   1034.45623375
_cell_formula_units_Z   1
loop_
 _symmetry_equiv_pos_site_id
 _symmetry_equiv_pos_as_xyz
  1  'x, y, z'
loop_
 _atom_site_type_symbol
 _atom_site_label
 _atom_site_symmetry_multiplicity
 _atom_site_fract_x
 _atom_site_fract_y
 _atom_site_fract_z
 _atom_site_occupancy
  Ir  Ir0  1  0.25000000  0.00000000  0.37500000  1
  Ir  Ir1  1  0.75000000  0.00000000  0.37500000  1
  Ir  Ir2  1  0.00000000  0.50000000  0.37500100  1
  Ir  Ir3  1  0.50000000  0.50000000  0.37500100  1
  Ir  Ir4  1  0.24999344  0.50210944  0.50061073  1
  Ir  Ir5  1  0.74999713  0.50205002  0.50046460  1
  Ir  Ir6  1  0.99973341  0.00160560  0.50020367  1
  Ir  Ir7  1  0.50026989  0.00160442  0.50020510  1
  Ir  Ir8  1  0.25001221  0.98084775  0.62262830  1
  Ir  Ir9  1  0.75003723  0.98034653  0.62500898  1
  Ir  Ir10  1  0.00041082  0.48019409  0.62570625  1
  Ir  Ir11  1  0.49966083  0.48018748  0.62569340  1
  O  O12  1  0.25000000  0.69160400  0.37500200  1
  O  O13  1  0.75000000  0.69160400  0.37500200  1
  O  O14  1  0.25000000  0.30839600  0.37500200  1
  O  O15  1  0.75000000  0.30839600  0.37500200  1
  O  O16  1  0.00000000  0.50000000  0.45209900  1
  O  O17  1  0.50000000  0.50000000  0.45209900  1
  O  O18  1  0.25000063  0.19410084  0.50192772  1
  O  O19  1  0.74999850  0.19415152  0.50176786  1
  O  O20  1  0.00000000  0.00000000  0.42290400  1
  O  O21  1  0.50000000  0.00000000  0.42290400  1
  O  O22  1  0.24999885  0.81048817  0.49952812  1
  O  O23  1  0.75000025  0.81038918  0.49931163  1
  O  O24  1  0.99797822  0.99257205  0.57826880  1
  O  O25  1  0.50206271  0.99256115  0.57827010  1
  O  O26  1  0.25003242  0.67621791  0.63026959  1
  O  O27  1  0.75002377  0.67492146  0.63295484  1
  O  O28  1  0.99874151  0.51758420  0.54928296  1
  O  O29  1  0.50124656  0.51758789  0.54927874  1
  O  O30  1  0.25003028  0.28764291  0.62810842  1
  O  O31  1  0.75002752  0.28797469  0.63147562  1
  H  H32  1  0.25060615  0.42922802  0.76595596  1
