# generated using pymatgen
data_Pt27N2
_symmetry_space_group_name_H-M   'P 1'
_cell_length_a   8.30563200
_cell_length_b   8.30548099
_cell_length_c   22.66204900
_cell_angle_alpha   86.50247764
_cell_angle_beta   89.99826160
_cell_angle_gamma   119.99933191
_symmetry_Int_Tables_number   1
_chemical_formula_structural   Pt27N2
_chemical_formula_sum   'Pt27 N2'
_cell_volume   1350.48407360
_cell_formula_units_Z   1
loop_
 _symmetry_equiv_pos_site_id
 _symmetry_equiv_pos_as_xyz
  1  'x, y, z'
loop_
 _atom_site_type_symbol
 _atom_site_label
 _atom_site_symmetry_multiplicity
 _atom_site_fract_x
 _atom_site_fract_y
 _atom_site_fract_z
 _atom_site_occupancy
  Pt  Pt0  1  0.06666700  0.13333400  0.40000000  1
  Pt  Pt1  1  0.06666700  0.46666700  0.40000000  1
  Pt  Pt2  1  0.06666700  0.80000100  0.40000000  1
  Pt  Pt3  1  0.40000000  0.13333400  0.40000000  1
  Pt  Pt4  1  0.40000000  0.46666700  0.40000000  1
  Pt  Pt5  1  0.40000000  0.80000100  0.40000000  1
  Pt  Pt6  1  0.73333400  0.13333400  0.40000000  1
  Pt  Pt7  1  0.73333400  0.46666700  0.40000000  1
  Pt  Pt8  1  0.73333400  0.80000100  0.40000000  1
  Pt  Pt9  1  0.16693854  0.99934778  0.50157824  1
  Pt  Pt10  1  0.16643014  0.33263533  0.50212616  1
  Pt  Pt11  1  0.16672386  0.66680539  0.50157544  1
  Pt  Pt12  1  0.49898096  0.99931675  0.50157848  1
  Pt  Pt13  1  0.50005004  0.33352689  0.50448115  1
  Pt  Pt14  1  0.49983005  0.66509647  0.50416503  1
  Pt  Pt15  1  0.83290868  0.99927331  0.50204773  1
  Pt  Pt16  1  0.83276685  0.33262627  0.50211803  1
  Pt  Pt17  1  0.83192186  0.66514534  0.50412239  1
  Pt  Pt18  1  0.26203541  0.19479594  0.60446988  1
  Pt  Pt19  1  0.26191859  0.53132130  0.60423078  1
  Pt  Pt20  1  0.26557161  0.86470346  0.60495251  1
  Pt  Pt21  1  0.59919968  0.19475503  0.60445113  1
  Pt  Pt22  1  0.59827033  0.53007917  0.61057170  1
  Pt  Pt23  1  0.59938074  0.86905411  0.60405828  1
  Pt  Pt24  1  0.93230649  0.19815288  0.60552287  1
  Pt  Pt25  1  0.93591728  0.53133155  0.60418314  1
  Pt  Pt26  1  0.93615322  0.86910154  0.60402698  1
  N  N27  1  0.59432835  0.52038996  0.69487349  1
  N  N28  1  0.59372621  0.51759608  0.74448375  1
