# generated using pymatgen
data_HPt27CO
_symmetry_space_group_name_H-M   'P 1'
_cell_length_a   8.30563200
_cell_length_b   8.30548099
_cell_length_c   22.66204900
_cell_angle_alpha   86.50247764
_cell_angle_beta   89.99826160
_cell_angle_gamma   119.99933191
_symmetry_Int_Tables_number   1
_chemical_formula_structural   HPt27CO
_chemical_formula_sum   'H1 Pt27 C1 O1'
_cell_volume   1350.48407360
_cell_formula_units_Z   1
loop_
 _symmetry_equiv_pos_site_id
 _symmetry_equiv_pos_as_xyz
  1  'x, y, z'
loop_
 _atom_site_type_symbol
 _atom_site_label
 _atom_site_symmetry_multiplicity
 _atom_site_fract_x
 _atom_site_fract_y
 _atom_site_fract_z
 _atom_site_occupancy
  Pt  Pt0  1  0.06666700  0.13333400  0.40000000  1
  Pt  Pt1  1  0.06666700  0.46666700  0.40000000  1
  Pt  Pt2  1  0.06666700  0.80000100  0.40000000  1
  Pt  Pt3  1  0.40000000  0.13333400  0.40000000  1
  Pt  Pt4  1  0.40000000  0.46666700  0.40000000  1
  Pt  Pt5  1  0.40000000  0.80000100  0.40000000  1
  Pt  Pt6  1  0.73333400  0.13333400  0.40000000  1
  Pt  Pt7  1  0.73333400  0.46666700  0.40000000  1
  Pt  Pt8  1  0.73333400  0.80000100  0.40000000  1
  Pt  Pt9  1  0.17077430  0.00316013  0.50384571  1
  Pt  Pt10  1  0.17184597  0.33713103  0.50355443  1
  Pt  Pt11  1  0.17059410  0.67013249  0.50415493  1
  Pt  Pt12  1  0.50303459  0.00296467  0.50246023  1
  Pt  Pt13  1  0.50361993  0.33709577  0.50343721  1
  Pt  Pt14  1  0.50360779  0.66924623  0.50350666  1
  Pt  Pt15  1  0.83802032  0.00310224  0.50245346  1
  Pt  Pt16  1  0.83810929  0.33786969  0.50251889  1
  Pt  Pt17  1  0.83887773  0.67062783  0.50386142  1
  Pt  Pt18  1  0.27100484  0.20033460  0.61050564  1
  Pt  Pt19  1  0.26896898  0.54084511  0.61060565  1
  Pt  Pt20  1  0.27430369  0.87331597  0.60659188  1
  Pt  Pt21  1  0.60927666  0.20402286  0.60499511  1
  Pt  Pt22  1  0.61400706  0.54200470  0.60926103  1
  Pt  Pt23  1  0.60898197  0.87675770  0.60479077  1
  Pt  Pt24  1  0.93637926  0.20404116  0.60499205  1
  Pt  Pt25  1  0.94004764  0.53868747  0.60697710  1
  Pt  Pt26  1  0.94078279  0.87358315  0.60656533  1
  C  C27  1  0.38339886  0.42209408  0.66102011  1
  H  H28  1  0.48565188  0.40646255  0.73647943  1
  O  O29  1  0.37664431  0.41181262  0.72079078  1
