# generated using pymatgen
data_Rh27CO2
_symmetry_space_group_name_H-M   'P 1'
_cell_length_a   8.03672266
_cell_length_b   8.03669826
_cell_length_c   21.92791400
_cell_angle_alpha   86.49772645
_cell_angle_beta   86.49795137
_cell_angle_gamma   59.99991575
_symmetry_Int_Tables_number   1
_chemical_formula_structural   Rh27CO2
_chemical_formula_sum   'Rh27 C1 O2'
_cell_volume   1223.49202859
_cell_formula_units_Z   1
loop_
 _symmetry_equiv_pos_site_id
 _symmetry_equiv_pos_as_xyz
  1  'x, y, z'
loop_
 _atom_site_type_symbol
 _atom_site_label
 _atom_site_symmetry_multiplicity
 _atom_site_fract_x
 _atom_site_fract_y
 _atom_site_fract_z
 _atom_site_occupancy
  Rh  Rh0  1  0.06666700  0.06666700  0.40000000  1
  Rh  Rh1  1  0.06666700  0.40000000  0.40000000  1
  Rh  Rh2  1  0.06666700  0.73333300  0.40000000  1
  Rh  Rh3  1  0.40000000  0.06666700  0.40000000  1
  Rh  Rh4  1  0.40000000  0.40000000  0.40000000  1
  Rh  Rh5  1  0.40000000  0.73333300  0.40000000  1
  Rh  Rh6  1  0.73333300  0.06666700  0.40000000  1
  Rh  Rh7  1  0.73333300  0.40000000  0.40000000  1
  Rh  Rh8  1  0.73333300  0.73333300  0.40000000  1
  Rh  Rh9  1  0.16648633  0.16696238  0.49896328  1
  Rh  Rh10  1  0.16691273  0.50033798  0.49845998  1
  Rh  Rh11  1  0.16779373  0.83326576  0.49855326  1
  Rh  Rh12  1  0.50042597  0.16679917  0.49892193  1
  Rh  Rh13  1  0.50154472  0.50131584  0.49894833  1
  Rh  Rh14  1  0.50147402  0.83080381  0.49894489  1
  Rh  Rh15  1  0.83297277  0.16797045  0.49865708  1
  Rh  Rh16  1  0.83116864  0.50121988  0.49891610  1
  Rh  Rh17  1  0.83277458  0.83328232  0.49859624  1
  Rh  Rh18  1  0.26670693  0.26790636  0.59737912  1
  Rh  Rh19  1  0.26579577  0.60113386  0.59727971  1
  Rh  Rh20  1  0.26597698  0.93443498  0.59728167  1
  Rh  Rh21  1  0.60074741  0.26709866  0.59741226  1
  Rh  Rh22  1  0.59959505  0.60090146  0.60397974  1
  Rh  Rh23  1  0.60025796  0.93459024  0.59741893  1
  Rh  Rh24  1  0.93339558  0.26676998  0.59749679  1
  Rh  Rh25  1  0.93503338  0.60101626  0.59719909  1
  Rh  Rh26  1  0.93371767  0.93380363  0.59697687  1
  C  C27  1  0.59883109  0.59634805  0.69643665  1
  O  O28  1  0.51946454  0.75708923  0.72195247  1
  O  O29  1  0.67811879  0.43318951  0.72401811  1
