# generated using pymatgen
data_HRh27N2
_symmetry_space_group_name_H-M   'P 1'
_cell_length_a   8.03672266
_cell_length_b   8.03669826
_cell_length_c   21.92791400
_cell_angle_alpha   86.49772645
_cell_angle_beta   86.49795137
_cell_angle_gamma   59.99991575
_symmetry_Int_Tables_number   1
_chemical_formula_structural   HRh27N2
_chemical_formula_sum   'H1 Rh27 N2'
_cell_volume   1223.49202859
_cell_formula_units_Z   1
loop_
 _symmetry_equiv_pos_site_id
 _symmetry_equiv_pos_as_xyz
  1  'x, y, z'
loop_
 _atom_site_type_symbol
 _atom_site_label
 _atom_site_symmetry_multiplicity
 _atom_site_fract_x
 _atom_site_fract_y
 _atom_site_fract_z
 _atom_site_occupancy
  Rh  Rh0  1  0.06666700  0.06666700  0.40000000  1
  Rh  Rh1  1  0.06666700  0.40000000  0.40000000  1
  Rh  Rh2  1  0.06666700  0.73333300  0.40000000  1
  Rh  Rh3  1  0.40000000  0.06666700  0.40000000  1
  Rh  Rh4  1  0.40000000  0.40000000  0.40000000  1
  Rh  Rh5  1  0.40000000  0.73333300  0.40000000  1
  Rh  Rh6  1  0.73333300  0.06666700  0.40000000  1
  Rh  Rh7  1  0.73333300  0.40000000  0.40000000  1
  Rh  Rh8  1  0.73333300  0.73333300  0.40000000  1
  Rh  Rh9  1  0.16695150  0.16728543  0.49808146  1
  Rh  Rh10  1  0.16723764  0.50044415  0.49809377  1
  Rh  Rh11  1  0.16763016  0.83341919  0.49840301  1
  Rh  Rh12  1  0.50034720  0.16738009  0.49811963  1
  Rh  Rh13  1  0.50235896  0.50245724  0.50006311  1
  Rh  Rh14  1  0.50198640  0.83040729  0.49923301  1
  Rh  Rh15  1  0.83335128  0.16771610  0.49847478  1
  Rh  Rh16  1  0.82931653  0.50248439  0.49997350  1
  Rh  Rh17  1  0.83345885  0.83341679  0.49837811  1
  Rh  Rh18  1  0.26745800  0.26697858  0.59674071  1
  Rh  Rh19  1  0.26372674  0.60114392  0.59697167  1
  Rh  Rh20  1  0.26411116  0.93687771  0.59679344  1
  Rh  Rh21  1  0.60144885  0.26255238  0.59696613  1
  Rh  Rh22  1  0.59993237  0.59714772  0.60897774  1
  Rh  Rh23  1  0.60101280  0.93722859  0.59672421  1
  Rh  Rh24  1  0.93820609  0.26246040  0.59687916  1
  Rh  Rh25  1  0.93810237  0.60091822  0.59682853  1
  Rh  Rh26  1  0.93409839  0.93370782  0.59700631  1
  N  N27  1  0.59787379  0.59442681  0.69084596  1
  N  N28  1  0.58052241  0.59299414  0.74468193  1
  H  H29  1  0.67736716  0.59035723  0.77510033  1
