# generated using pymatgen
data_Rh27O
_symmetry_space_group_name_H-M   'P 1'
_cell_length_a   8.03672266
_cell_length_b   8.03669826
_cell_length_c   21.92791400
_cell_angle_alpha   86.49772645
_cell_angle_beta   86.49795137
_cell_angle_gamma   59.99991575
_symmetry_Int_Tables_number   1
_chemical_formula_structural   Rh27O
_chemical_formula_sum   'Rh27 O1'
_cell_volume   1223.49202859
_cell_formula_units_Z   1
loop_
 _symmetry_equiv_pos_site_id
 _symmetry_equiv_pos_as_xyz
  1  'x, y, z'
loop_
 _atom_site_type_symbol
 _atom_site_label
 _atom_site_symmetry_multiplicity
 _atom_site_fract_x
 _atom_site_fract_y
 _atom_site_fract_z
 _atom_site_occupancy
  Rh  Rh0  1  0.06666700  0.06666700  0.40000000  1
  Rh  Rh1  1  0.06666700  0.40000000  0.40000000  1
  Rh  Rh2  1  0.06666700  0.73333300  0.40000000  1
  Rh  Rh3  1  0.40000000  0.06666700  0.40000000  1
  Rh  Rh4  1  0.40000000  0.40000000  0.40000000  1
  Rh  Rh5  1  0.40000000  0.73333300  0.40000000  1
  Rh  Rh6  1  0.73333300  0.06666700  0.40000000  1
  Rh  Rh7  1  0.73333300  0.40000000  0.40000000  1
  Rh  Rh8  1  0.73333300  0.73333300  0.40000000  1
  Rh  Rh9  1  0.16701258  0.16701048  0.49723499  1
  Rh  Rh10  1  0.16781494  0.50108231  0.49901357  1
  Rh  Rh11  1  0.16781824  0.83154835  0.49901759  1
  Rh  Rh12  1  0.50108450  0.16781274  0.49901359  1
  Rh  Rh13  1  0.50038211  0.50037999  0.49693290  1
  Rh  Rh14  1  0.50108467  0.83154785  0.49901706  1
  Rh  Rh15  1  0.83155044  0.16781616  0.49901760  1
  Rh  Rh16  1  0.83155000  0.50108247  0.49901703  1
  Rh  Rh17  1  0.83357098  0.83356882  0.49823724  1
  Rh  Rh18  1  0.26536067  0.26535620  0.59640516  1
  Rh  Rh19  1  0.26131166  0.60269727  0.60044848  1
  Rh  Rh20  1  0.26535932  0.93735395  0.59640822  1
  Rh  Rh21  1  0.60270171  0.26130738  0.60044843  1
  Rh  Rh22  1  0.60271163  0.60270708  0.60045632  1
  Rh  Rh23  1  0.60010631  0.93388919  0.59696705  1
  Rh  Rh24  1  0.93735845  0.26535477  0.59640826  1
  Rh  Rh25  1  0.93389358  0.60010193  0.59696709  1
  Rh  Rh26  1  0.93389381  0.93388951  0.59696906  1
  O  O27  1  0.48258069  0.48257555  0.65731618  1
