# generated using pymatgen
data_H(Ir3O5)4
_symmetry_space_group_name_H-M   'P 1'
_cell_length_a   6.34574200
_cell_length_b   6.38387200
_cell_length_c   25.53556900
_cell_angle_alpha   90.00000000
_cell_angle_beta   90.00000000
_cell_angle_gamma   90.00000000
_symmetry_Int_Tables_number   1
_chemical_formula_structural   H(Ir3O5)4
_chemical_formula_sum   'Ir12 H1 O20'
_cell_volume   1034.45623375
_cell_formula_units_Z   1
loop_
 _symmetry_equiv_pos_site_id
 _symmetry_equiv_pos_as_xyz
  1  'x, y, z'
loop_
 _atom_site_type_symbol
 _atom_site_label
 _atom_site_symmetry_multiplicity
 _atom_site_fract_x
 _atom_site_fract_y
 _atom_site_fract_z
 _atom_site_occupancy
  Ir  Ir0  1  0.25000000  0.00000000  0.37500000  1
  Ir  Ir1  1  0.75000000  0.00000000  0.37500000  1
  Ir  Ir2  1  0.00000000  0.50000000  0.37500100  1
  Ir  Ir3  1  0.50000000  0.50000000  0.37500100  1
  Ir  Ir4  1  0.25223098  0.50000299  0.49995825  1
  Ir  Ir5  1  0.74775990  0.50000352  0.49995881  1
  Ir  Ir6  1  0.99999801  0.00000268  0.50028297  1
  Ir  Ir7  1  0.49999818  0.00000312  0.49994520  1
  Ir  Ir8  1  0.25259707  0.00001963  0.62384514  1
  Ir  Ir9  1  0.74740472  0.00001986  0.62384484  1
  Ir  Ir10  1  0.00000146  0.50002011  0.62447625  1
  Ir  Ir11  1  0.49999929  0.50001699  0.63179768  1
  O  O12  1  0.25000000  0.69160400  0.37500200  1
  O  O13  1  0.75000000  0.69160400  0.37500200  1
  O  O14  1  0.25000000  0.30839600  0.37500200  1
  O  O15  1  0.75000000  0.30839600  0.37500200  1
  O  O16  1  0.00000000  0.50000000  0.45209900  1
  O  O17  1  0.50000000  0.50000000  0.45209900  1
  O  O18  1  0.25013455  0.19184767  0.50031070  1
  O  O19  1  0.74986122  0.19184807  0.50031106  1
  O  O20  1  0.00000000  0.00000000  0.42290400  1
  O  O21  1  0.50000000  0.00000000  0.42290400  1
  O  O22  1  0.25013369  0.80815784  0.50030873  1
  O  O23  1  0.74986146  0.80815790  0.50030908  1
  O  O24  1  0.00000244  0.00000552  0.57853857  1
  O  O25  1  0.50000180  0.00000253  0.57843847  1
  O  O26  1  0.24898418  0.69469410  0.63039978  1
  O  O27  1  0.75101489  0.69469391  0.63039847  1
  O  O28  1  0.99999181  0.49999458  0.54789118  1
  O  O29  1  0.49999101  0.50000062  0.54776584  1
  O  O30  1  0.24898533  0.30534274  0.63039790  1
  O  O31  1  0.75101353  0.30534282  0.63039661  1
  H  H32  1  0.50000350  0.50001739  0.69377933  1
