# generated using pymatgen
data_Cu27H
_symmetry_space_group_name_H-M   'P 1'
_cell_length_a   7.56931204
_cell_length_b   6.17958932
_cell_length_c   26.20755800
_cell_angle_alpha   89.93253853
_cell_angle_beta   90.00615399
_cell_angle_gamma   90.00637696
_symmetry_Int_Tables_number   1
_chemical_formula_structural   Cu27H
_chemical_formula_sum   'Cu27 H1'
_cell_volume   1225.86394768
_cell_formula_units_Z   1
loop_
 _symmetry_equiv_pos_site_id
 _symmetry_equiv_pos_as_xyz
  1  'x, y, z'
loop_
 _atom_site_type_symbol
 _atom_site_label
 _atom_site_symmetry_multiplicity
 _atom_site_fract_x
 _atom_site_fract_y
 _atom_site_fract_z
 _atom_site_occupancy
  Cu  Cu0  1  0.00000100  0.70833300  0.43055600  1
  Cu  Cu1  1  0.33333400  0.70833300  0.43055600  1
  Cu  Cu2  1  0.66666700  0.70833300  0.43055600  1
  Cu  Cu3  1  0.00000100  0.04166600  0.48611100  1
  Cu  Cu4  1  0.33333400  0.04166600  0.48611100  1
  Cu  Cu5  1  0.66666700  0.04166600  0.48611100  1
  Cu  Cu6  1  0.00172368  0.36834638  0.54317708  1
  Cu  Cu7  1  0.33335736  0.36891144  0.54262626  1
  Cu  Cu8  1  0.66500856  0.36835454  0.54317134  1
  Cu  Cu9  1  0.16666700  0.37500000  0.45833300  1
  Cu  Cu10  1  0.50000000  0.37500000  0.45833300  1
  Cu  Cu11  1  0.83333400  0.37500000  0.45833300  1
  Cu  Cu12  1  0.16676268  0.70564402  0.51316423  1
  Cu  Cu13  1  0.49991294  0.70564038  0.51316051  1
  Cu  Cu14  1  0.83335710  0.70674369  0.51325171  1
  Cu  Cu15  1  0.00072432  0.69308053  0.59927016  1
  Cu  Cu16  1  0.33338681  0.69814798  0.59958423  1
  Cu  Cu17  1  0.66603671  0.69311053  0.59926484  1
  Cu  Cu18  1  0.99895310  0.02781746  0.65123046  1
  Cu  Cu19  1  0.33336587  0.03097426  0.65105123  1
  Cu  Cu20  1  0.66771774  0.02783698  0.65122498  1
  Cu  Cu21  1  0.16602264  0.02788454  0.56981912  1
  Cu  Cu22  1  0.50065221  0.02788089  0.56981215  1
  Cu  Cu23  1  0.83335558  0.02892845  0.57020548  1
  Cu  Cu24  1  0.16550972  0.36819878  0.62873812  1
  Cu  Cu25  1  0.50129506  0.36821043  0.62871594  1
  Cu  Cu26  1  0.83339229  0.36336165  0.62668189  1
  H  H27  1  0.33350644  0.29637471  0.67003107  1
