# generated using pymatgen
data_HPt27
_symmetry_space_group_name_H-M   'P 1'
_cell_length_a   8.30563200
_cell_length_b   8.30548099
_cell_length_c   22.66204900
_cell_angle_alpha   86.50247764
_cell_angle_beta   89.99826160
_cell_angle_gamma   119.99933191
_symmetry_Int_Tables_number   1
_chemical_formula_structural   HPt27
_chemical_formula_sum   'H1 Pt27'
_cell_volume   1350.48407360
_cell_formula_units_Z   1
loop_
 _symmetry_equiv_pos_site_id
 _symmetry_equiv_pos_as_xyz
  1  'x, y, z'
loop_
 _atom_site_type_symbol
 _atom_site_label
 _atom_site_symmetry_multiplicity
 _atom_site_fract_x
 _atom_site_fract_y
 _atom_site_fract_z
 _atom_site_occupancy
  Pt  Pt0  1  0.06666700  0.13333400  0.40000000  1
  Pt  Pt1  1  0.06666700  0.46666700  0.40000000  1
  Pt  Pt2  1  0.06666700  0.80000100  0.40000000  1
  Pt  Pt3  1  0.40000000  0.13333400  0.40000000  1
  Pt  Pt4  1  0.40000000  0.46666700  0.40000000  1
  Pt  Pt5  1  0.40000000  0.80000100  0.40000000  1
  Pt  Pt6  1  0.73333400  0.13333400  0.40000000  1
  Pt  Pt7  1  0.73333400  0.46666700  0.40000000  1
  Pt  Pt8  1  0.73333400  0.80000100  0.40000000  1
  Pt  Pt9  1  0.16673408  0.99994108  0.50206140  1
  Pt  Pt10  1  0.16672911  0.33326778  0.50232274  1
  Pt  Pt11  1  0.16667771  0.66669164  0.50205855  1
  Pt  Pt12  1  0.49986764  0.99994101  0.50206201  1
  Pt  Pt13  1  0.50034137  0.33401805  0.50358877  1
  Pt  Pt14  1  0.50029215  0.66580839  0.50353852  1
  Pt  Pt15  1  0.83319828  0.99973687  0.50231754  1
  Pt  Pt16  1  0.83320136  0.33326802  0.50232292  1
  Pt  Pt17  1  0.83217529  0.66580567  0.50353834  1
  Pt  Pt18  1  0.26595217  0.19892155  0.60461713  1
  Pt  Pt19  1  0.26585137  0.53333397  0.60459368  1
  Pt  Pt20  1  0.26651644  0.86637706  0.60465282  1
  Pt  Pt21  1  0.59962557  0.19892291  0.60461603  1
  Pt  Pt22  1  0.59917631  0.53169999  0.61131913  1
  Pt  Pt23  1  0.59963564  0.86716708  0.60457487  1
  Pt  Pt24  1  0.93315955  0.19966546  0.60491986  1
  Pt  Pt25  1  0.93413836  0.53333713  0.60459308  1
  Pt  Pt26  1  0.93418830  0.86716814  0.60457355  1
  H  H27  1  0.59316390  0.51967947  0.68001793  1
