# generated using pymatgen
data_H(Ir6O11)2
_symmetry_space_group_name_H-M   'P 1'
_cell_length_a   6.34574200
_cell_length_b   6.38387200
_cell_length_c   25.53556900
_cell_angle_alpha   90.00000000
_cell_angle_beta   90.00000000
_cell_angle_gamma   90.00000000
_symmetry_Int_Tables_number   1
_chemical_formula_structural   H(Ir6O11)2
_chemical_formula_sum   'Ir12 H1 O22'
_cell_volume   1034.45623375
_cell_formula_units_Z   1
loop_
 _symmetry_equiv_pos_site_id
 _symmetry_equiv_pos_as_xyz
  1  'x, y, z'
loop_
 _atom_site_type_symbol
 _atom_site_label
 _atom_site_symmetry_multiplicity
 _atom_site_fract_x
 _atom_site_fract_y
 _atom_site_fract_z
 _atom_site_occupancy
  Ir  Ir0  1  0.25000000  0.00000000  0.37500000  1
  Ir  Ir1  1  0.75000000  0.00000000  0.37500000  1
  Ir  Ir2  1  0.00000000  0.50000000  0.37500100  1
  Ir  Ir3  1  0.50000000  0.50000000  0.37500100  1
  Ir  Ir4  1  0.25171109  0.49901536  0.50023276  1
  Ir  Ir5  1  0.74854887  0.49853319  0.50025257  1
  Ir  Ir6  1  0.00037012  0.99864943  0.50001257  1
  Ir  Ir7  1  0.50030245  0.99874625  0.49984829  1
  Ir  Ir8  1  0.25209907  0.99111898  0.62346247  1
  Ir  Ir9  1  0.74924673  0.99179000  0.62321787  1
  Ir  Ir10  1  0.00025298  0.49121809  0.62459507  1
  Ir  Ir11  1  0.50023249  0.49206465  0.62995587  1
  O  O12  1  0.25000000  0.69160400  0.37500200  1
  O  O13  1  0.75000000  0.69160400  0.37500200  1
  O  O14  1  0.25000000  0.30839600  0.37500200  1
  O  O15  1  0.75000000  0.30839600  0.37500200  1
  O  O16  1  0.00000000  0.50000000  0.45209900  1
  O  O17  1  0.50000000  0.50000000  0.45209900  1
  O  O18  1  0.25039693  0.19066356  0.50062399  1
  O  O19  1  0.75031780  0.19041220  0.50067230  1
  O  O20  1  0.00000000  0.00000000  0.42290400  1
  O  O21  1  0.50000000  0.00000000  0.42290400  1
  O  O22  1  0.25049670  0.80713725  0.50004079  1
  O  O23  1  0.74996247  0.80696828  0.50012446  1
  O  O24  1  0.00113179  0.99467962  0.57811962  1
  O  O25  1  0.50063489  0.99354430  0.57816197  1
  O  O26  1  0.24784971  0.68664982  0.62947439  1
  O  O27  1  0.75058705  0.68596160  0.62953363  1
  O  O28  1  0.00025521  0.50167994  0.54804059  1
  O  O29  1  0.50010875  0.49759749  0.54940257  1
  O  O30  1  0.24992616  0.29728891  0.62911807  1
  O  O31  1  0.75335508  0.29634589  0.62968279  1
  O  O32  1  0.50955314  0.47325231  0.70656814  1
  O  O33  1  0.42770496  0.66207614  0.73300704  1
  H  H34  1  0.55923753  0.74092888  0.73969330  1
