# generated using pymatgen
data_HRh27O2
_symmetry_space_group_name_H-M   'P 1'
_cell_length_a   8.03672266
_cell_length_b   8.03669826
_cell_length_c   21.92791400
_cell_angle_alpha   86.49772645
_cell_angle_beta   86.49795137
_cell_angle_gamma   59.99991575
_symmetry_Int_Tables_number   1
_chemical_formula_structural   HRh27O2
_chemical_formula_sum   'H1 Rh27 O2'
_cell_volume   1223.49202859
_cell_formula_units_Z   1
loop_
 _symmetry_equiv_pos_site_id
 _symmetry_equiv_pos_as_xyz
  1  'x, y, z'
loop_
 _atom_site_type_symbol
 _atom_site_label
 _atom_site_symmetry_multiplicity
 _atom_site_fract_x
 _atom_site_fract_y
 _atom_site_fract_z
 _atom_site_occupancy
  Rh  Rh0  1  0.06666700  0.06666700  0.40000000  1
  Rh  Rh1  1  0.06666700  0.40000000  0.40000000  1
  Rh  Rh2  1  0.06666700  0.73333300  0.40000000  1
  Rh  Rh3  1  0.40000000  0.06666700  0.40000000  1
  Rh  Rh4  1  0.40000000  0.40000000  0.40000000  1
  Rh  Rh5  1  0.40000000  0.73333300  0.40000000  1
  Rh  Rh6  1  0.73333300  0.06666700  0.40000000  1
  Rh  Rh7  1  0.73333300  0.40000000  0.40000000  1
  Rh  Rh8  1  0.73333300  0.73333300  0.40000000  1
  Rh  Rh9  1  0.16806956  0.16553178  0.49826074  1
  Rh  Rh10  1  0.16799607  0.49943809  0.49801433  1
  Rh  Rh11  1  0.16857895  0.83259591  0.49859647  1
  Rh  Rh12  1  0.50096486  0.16632040  0.49791675  1
  Rh  Rh13  1  0.50241766  0.50088960  0.49988500  1
  Rh  Rh14  1  0.50260157  0.83036352  0.49936940  1
  Rh  Rh15  1  0.83412122  0.16696930  0.49844252  1
  Rh  Rh16  1  0.83247770  0.50086574  0.49917730  1
  Rh  Rh17  1  0.83418893  0.83251496  0.49836616  1
  Rh  Rh18  1  0.26859216  0.26556770  0.59691789  1
  Rh  Rh19  1  0.26571644  0.59951754  0.59687917  1
  Rh  Rh20  1  0.26754199  0.93328500  0.59740334  1
  Rh  Rh21  1  0.60231669  0.26276712  0.59678083  1
  Rh  Rh22  1  0.60121202  0.59678354  0.60167950  1
  Rh  Rh23  1  0.60274819  0.93399426  0.59672729  1
  Rh  Rh24  1  0.93775787  0.26327896  0.59674671  1
  Rh  Rh25  1  0.93712442  0.59969916  0.59694469  1
  Rh  Rh26  1  0.93488461  0.93274287  0.59698875  1
  O  O27  1  0.62397260  0.56040245  0.69222578  1
  O  O28  1  0.46137065  0.71671873  0.72684432  1
  H  H29  1  0.51560745  0.80016476  0.73436599  1
