# generated using pymatgen
data_Cu27H
_symmetry_space_group_name_H-M   'P 1'
_cell_length_a   7.56931204
_cell_length_b   6.17958932
_cell_length_c   26.20755800
_cell_angle_alpha   89.93253853
_cell_angle_beta   90.00615399
_cell_angle_gamma   90.00637696
_symmetry_Int_Tables_number   1
_chemical_formula_structural   Cu27H
_chemical_formula_sum   'Cu27 H1'
_cell_volume   1225.86394768
_cell_formula_units_Z   1
loop_
 _symmetry_equiv_pos_site_id
 _symmetry_equiv_pos_as_xyz
  1  'x, y, z'
loop_
 _atom_site_type_symbol
 _atom_site_label
 _atom_site_symmetry_multiplicity
 _atom_site_fract_x
 _atom_site_fract_y
 _atom_site_fract_z
 _atom_site_occupancy
  Cu  Cu0  1  0.00000100  0.70833300  0.43055600  1
  Cu  Cu1  1  0.33333400  0.70833300  0.43055600  1
  Cu  Cu2  1  0.66666700  0.70833300  0.43055600  1
  Cu  Cu3  1  0.00000100  0.04166600  0.48611100  1
  Cu  Cu4  1  0.33333400  0.04166600  0.48611100  1
  Cu  Cu5  1  0.66666700  0.04166600  0.48611100  1
  Cu  Cu6  1  0.00147657  0.36939458  0.54317693  1
  Cu  Cu7  1  0.33337489  0.36982503  0.54262979  1
  Cu  Cu8  1  0.66526631  0.36939715  0.54317440  1
  Cu  Cu9  1  0.16666700  0.37500000  0.45833300  1
  Cu  Cu10  1  0.50000000  0.37500000  0.45833300  1
  Cu  Cu11  1  0.83333400  0.37500000  0.45833300  1
  Cu  Cu12  1  0.16677013  0.70639416  0.51324142  1
  Cu  Cu13  1  0.49993536  0.70638642  0.51323850  1
  Cu  Cu14  1  0.83337020  0.70748880  0.51326300  1
  Cu  Cu15  1  0.00048129  0.69507555  0.59934338  1
  Cu  Cu16  1  0.33339978  0.69979113  0.59965220  1
  Cu  Cu17  1  0.66628422  0.69507996  0.59933806  1
  Cu  Cu18  1  0.99897403  0.03098474  0.65129329  1
  Cu  Cu19  1  0.33335994  0.03331928  0.65088595  1
  Cu  Cu20  1  0.66768660  0.03099458  0.65128931  1
  Cu  Cu21  1  0.16593752  0.02907689  0.56985055  1
  Cu  Cu22  1  0.50076247  0.02907662  0.56984572  1
  Cu  Cu23  1  0.83336246  0.03035532  0.57029424  1
  Cu  Cu24  1  0.16587919  0.37027579  0.62867100  1
  Cu  Cu25  1  0.50087799  0.37026495  0.62866638  1
  Cu  Cu26  1  0.83337721  0.36581803  0.62683214  1
  H  H27  1  0.33337270  0.29460542  0.67057345  1
