# generated using pymatgen
data_H3Pt27N
_symmetry_space_group_name_H-M   'P 1'
_cell_length_a   8.30563200
_cell_length_b   8.30548099
_cell_length_c   22.66204900
_cell_angle_alpha   86.50247764
_cell_angle_beta   89.99826160
_cell_angle_gamma   119.99933191
_symmetry_Int_Tables_number   1
_chemical_formula_structural   H3Pt27N
_chemical_formula_sum   'H3 Pt27 N1'
_cell_volume   1350.48407360
_cell_formula_units_Z   1
loop_
 _symmetry_equiv_pos_site_id
 _symmetry_equiv_pos_as_xyz
  1  'x, y, z'
loop_
 _atom_site_type_symbol
 _atom_site_label
 _atom_site_symmetry_multiplicity
 _atom_site_fract_x
 _atom_site_fract_y
 _atom_site_fract_z
 _atom_site_occupancy
  Pt  Pt0  1  0.06666700  0.13333400  0.40000000  1
  Pt  Pt1  1  0.06666700  0.46666700  0.40000000  1
  Pt  Pt2  1  0.06666700  0.80000100  0.40000000  1
  Pt  Pt3  1  0.40000000  0.13333400  0.40000000  1
  Pt  Pt4  1  0.40000000  0.46666700  0.40000000  1
  Pt  Pt5  1  0.40000000  0.80000100  0.40000000  1
  Pt  Pt6  1  0.73333400  0.13333400  0.40000000  1
  Pt  Pt7  1  0.73333400  0.46666700  0.40000000  1
  Pt  Pt8  1  0.73333400  0.80000100  0.40000000  1
  Pt  Pt9  1  0.16703645  0.00014267  0.50174343  1
  Pt  Pt10  1  0.16666352  0.33358171  0.50219895  1
  Pt  Pt11  1  0.16691034  0.66750227  0.50174404  1
  Pt  Pt12  1  0.49945172  0.00023449  0.50173921  1
  Pt  Pt13  1  0.50026638  0.33420072  0.50417952  1
  Pt  Pt14  1  0.50011139  0.66613137  0.50399471  1
  Pt  Pt15  1  0.83332389  0.00018656  0.50215825  1
  Pt  Pt16  1  0.83318098  0.33350114  0.50220709  1
  Pt  Pt17  1  0.83227551  0.66610294  0.50403293  1
  Pt  Pt18  1  0.26433230  0.19820044  0.60442836  1
  Pt  Pt19  1  0.26453817  0.53361019  0.60429737  1
  Pt  Pt20  1  0.26647534  0.86685916  0.60490986  1
  Pt  Pt21  1  0.59987387  0.19848897  0.60447557  1
  Pt  Pt22  1  0.59923051  0.53249867  0.61074296  1
  Pt  Pt23  1  0.60002286  0.86948467  0.60415609  1
  Pt  Pt24  1  0.93312116  0.20017119  0.60537904  1
  Pt  Pt25  1  0.93530095  0.53353272  0.60431848  1
  Pt  Pt26  1  0.93529864  0.86911395  0.60424349  1
  N  N27  1  0.59072912  0.51746227  0.70286528  1
  H  H28  1  0.71990578  0.55366454  0.71872293  1
  H  H29  1  0.55114154  0.60757404  0.71788966  1
  H  H30  1  0.49699218  0.38449917  0.71975946  1
