# generated using pymatgen
data_Rh27O
_symmetry_space_group_name_H-M   'P 1'
_cell_length_a   8.03672266
_cell_length_b   8.03669826
_cell_length_c   21.92791400
_cell_angle_alpha   86.49772645
_cell_angle_beta   86.49795137
_cell_angle_gamma   59.99991575
_symmetry_Int_Tables_number   1
_chemical_formula_structural   Rh27O
_chemical_formula_sum   'Rh27 O1'
_cell_volume   1223.49202859
_cell_formula_units_Z   1
loop_
 _symmetry_equiv_pos_site_id
 _symmetry_equiv_pos_as_xyz
  1  'x, y, z'
loop_
 _atom_site_type_symbol
 _atom_site_label
 _atom_site_symmetry_multiplicity
 _atom_site_fract_x
 _atom_site_fract_y
 _atom_site_fract_z
 _atom_site_occupancy
  Rh  Rh0  1  0.06666700  0.06666700  0.40000000  1
  Rh  Rh1  1  0.06666700  0.40000000  0.40000000  1
  Rh  Rh2  1  0.06666700  0.73333300  0.40000000  1
  Rh  Rh3  1  0.40000000  0.06666700  0.40000000  1
  Rh  Rh4  1  0.40000000  0.40000000  0.40000000  1
  Rh  Rh5  1  0.40000000  0.73333300  0.40000000  1
  Rh  Rh6  1  0.73333300  0.06666700  0.40000000  1
  Rh  Rh7  1  0.73333300  0.40000000  0.40000000  1
  Rh  Rh8  1  0.73333300  0.73333300  0.40000000  1
  Rh  Rh9  1  0.16706634  0.16706447  0.49731709  1
  Rh  Rh10  1  0.16780662  0.50095269  0.49862424  1
  Rh  Rh11  1  0.16781156  0.83200715  0.49862422  1
  Rh  Rh12  1  0.50095454  0.16780481  0.49862425  1
  Rh  Rh13  1  0.50045452  0.50045282  0.49686318  1
  Rh  Rh14  1  0.50096969  0.83199659  0.49862918  1
  Rh  Rh15  1  0.83200892  0.16780978  0.49862423  1
  Rh  Rh16  1  0.83199848  0.50096780  0.49862920  1
  Rh  Rh17  1  0.83365634  0.83365452  0.49808246  1
  Rh  Rh18  1  0.26569213  0.26568814  0.59608148  1
  Rh  Rh19  1  0.25913308  0.60408534  0.59957735  1
  Rh  Rh20  1  0.26569735  0.93712460  0.59608112  1
  Rh  Rh21  1  0.60408912  0.25912956  0.59957730  1
  Rh  Rh22  1  0.60411053  0.60410649  0.59959122  1
  Rh  Rh23  1  0.60020219  0.93408501  0.59642471  1
  Rh  Rh24  1  0.93712867  0.26569332  0.59608115  1
  Rh  Rh25  1  0.93408879  0.60019839  0.59642476  1
  Rh  Rh26  1  0.93409898  0.93409528  0.59642091  1
  O  O27  1  0.48316074  0.48315644  0.65322333  1
