# generated using pymatgen
data_Pt27CO2
_symmetry_space_group_name_H-M   'P 1'
_cell_length_a   8.30563200
_cell_length_b   8.30548099
_cell_length_c   22.66204900
_cell_angle_alpha   86.50247764
_cell_angle_beta   89.99826160
_cell_angle_gamma   119.99933191
_symmetry_Int_Tables_number   1
_chemical_formula_structural   Pt27CO2
_chemical_formula_sum   'Pt27 C1 O2'
_cell_volume   1350.48407360
_cell_formula_units_Z   1
loop_
 _symmetry_equiv_pos_site_id
 _symmetry_equiv_pos_as_xyz
  1  'x, y, z'
loop_
 _atom_site_type_symbol
 _atom_site_label
 _atom_site_symmetry_multiplicity
 _atom_site_fract_x
 _atom_site_fract_y
 _atom_site_fract_z
 _atom_site_occupancy
  Pt  Pt0  1  0.06666700  0.13333400  0.40000000  1
  Pt  Pt1  1  0.06666700  0.46666700  0.40000000  1
  Pt  Pt2  1  0.06666700  0.80000100  0.40000000  1
  Pt  Pt3  1  0.40000000  0.13333400  0.40000000  1
  Pt  Pt4  1  0.40000000  0.46666700  0.40000000  1
  Pt  Pt5  1  0.40000000  0.80000100  0.40000000  1
  Pt  Pt6  1  0.73333400  0.13333400  0.40000000  1
  Pt  Pt7  1  0.73333400  0.46666700  0.40000000  1
  Pt  Pt8  1  0.73333400  0.80000100  0.40000000  1
  Pt  Pt9  1  0.16699917  0.00021377  0.50194903  1
  Pt  Pt10  1  0.16719137  0.33399834  0.50244589  1
  Pt  Pt11  1  0.16665517  0.66674682  0.50242141  1
  Pt  Pt12  1  0.49972742  0.00020903  0.50194885  1
  Pt  Pt13  1  0.50080431  0.33513028  0.50404504  1
  Pt  Pt14  1  0.50045709  0.66542588  0.50423997  1
  Pt  Pt15  1  0.83333503  0.00019405  0.50220604  1
  Pt  Pt16  1  0.83330191  0.33398830  0.50243408  1
  Pt  Pt17  1  0.83147400  0.66544986  0.50420009  1
  Pt  Pt18  1  0.26671643  0.20039832  0.60432843  1
  Pt  Pt19  1  0.26650136  0.53388164  0.60539444  1
  Pt  Pt20  1  0.26677674  0.86713580  0.60492851  1
  Pt  Pt21  1  0.60008447  0.20034270  0.60430045  1
  Pt  Pt22  1  0.59923273  0.53193053  0.61677786  1
  Pt  Pt23  1  0.59978975  0.86761982  0.60404841  1
  Pt  Pt24  1  0.93353077  0.20063530  0.60502747  1
  Pt  Pt25  1  0.93386586  0.53390484  0.60532177  1
  Pt  Pt26  1  0.93429831  0.86769721  0.60400274  1
  C  C27  1  0.59365921  0.51767484  0.70660588  1
  O  O28  1  0.67115210  0.67011804  0.73071409  1
  O  O29  1  0.51297488  0.35696864  0.73250481  1
