# generated using pymatgen
data_Pt27CO2
_symmetry_space_group_name_H-M   'P 1'
_cell_length_a   8.30563200
_cell_length_b   8.30548099
_cell_length_c   22.66204900
_cell_angle_alpha   86.50247764
_cell_angle_beta   89.99826160
_cell_angle_gamma   119.99933191
_symmetry_Int_Tables_number   1
_chemical_formula_structural   Pt27CO2
_chemical_formula_sum   'Pt27 C1 O2'
_cell_volume   1350.48407360
_cell_formula_units_Z   1
loop_
 _symmetry_equiv_pos_site_id
 _symmetry_equiv_pos_as_xyz
  1  'x, y, z'
loop_
 _atom_site_type_symbol
 _atom_site_label
 _atom_site_symmetry_multiplicity
 _atom_site_fract_x
 _atom_site_fract_y
 _atom_site_fract_z
 _atom_site_occupancy
  Pt  Pt0  1  0.06666700  0.13333400  0.40000000  1
  Pt  Pt1  1  0.06666700  0.46666700  0.40000000  1
  Pt  Pt2  1  0.06666700  0.80000100  0.40000000  1
  Pt  Pt3  1  0.40000000  0.13333400  0.40000000  1
  Pt  Pt4  1  0.40000000  0.46666700  0.40000000  1
  Pt  Pt5  1  0.40000000  0.80000100  0.40000000  1
  Pt  Pt6  1  0.73333400  0.13333400  0.40000000  1
  Pt  Pt7  1  0.73333400  0.46666700  0.40000000  1
  Pt  Pt8  1  0.73333400  0.80000100  0.40000000  1
  Pt  Pt9  1  0.16707084  0.00012034  0.50187924  1
  Pt  Pt10  1  0.16731083  0.33386250  0.50232530  1
  Pt  Pt11  1  0.16677862  0.66690649  0.50225300  1
  Pt  Pt12  1  0.49969925  0.00012010  0.50187970  1
  Pt  Pt13  1  0.50088920  0.33512094  0.50359538  1
  Pt  Pt14  1  0.50042743  0.66555536  0.50372970  1
  Pt  Pt15  1  0.83340001  0.00014884  0.50213141  1
  Pt  Pt16  1  0.83320502  0.33386137  0.50232488  1
  Pt  Pt17  1  0.83177477  0.66555216  0.50372987  1
  Pt  Pt18  1  0.26652591  0.20025334  0.60413638  1
  Pt  Pt19  1  0.26651286  0.53381959  0.60489465  1
  Pt  Pt20  1  0.26682542  0.86701143  0.60487410  1
  Pt  Pt21  1  0.60037255  0.20024814  0.60413757  1
  Pt  Pt22  1  0.59954154  0.53243949  0.61412301  1
  Pt  Pt23  1  0.59969912  0.86758207  0.60391281  1
  Pt  Pt24  1  0.93360421  0.20056479  0.60492407  1
  Pt  Pt25  1  0.93394756  0.53381821  0.60489418  1
  Pt  Pt26  1  0.93453019  0.86758560  0.60391306  1
  C  C27  1  0.59350577  0.52030311  0.70539654  1
  O  O28  1  0.67110478  0.67528178  0.72645699  1
  O  O29  1  0.51254849  0.35857165  0.72887511  1
