# generated using pymatgen
data_Cu27HCO
_symmetry_space_group_name_H-M   'P 1'
_cell_length_a   7.56931204
_cell_length_b   6.17958932
_cell_length_c   26.20755800
_cell_angle_alpha   89.93253853
_cell_angle_beta   90.00615399
_cell_angle_gamma   90.00637696
_symmetry_Int_Tables_number   1
_chemical_formula_structural   Cu27HCO
_chemical_formula_sum   'Cu27 H1 C1 O1'
_cell_volume   1225.86394768
_cell_formula_units_Z   1
loop_
 _symmetry_equiv_pos_site_id
 _symmetry_equiv_pos_as_xyz
  1  'x, y, z'
loop_
 _atom_site_type_symbol
 _atom_site_label
 _atom_site_symmetry_multiplicity
 _atom_site_fract_x
 _atom_site_fract_y
 _atom_site_fract_z
 _atom_site_occupancy
  Cu  Cu0  1  0.00000100  0.70833300  0.43055600  1
  Cu  Cu1  1  0.33333400  0.70833300  0.43055600  1
  Cu  Cu2  1  0.66666700  0.70833300  0.43055600  1
  Cu  Cu3  1  0.00000100  0.04166600  0.48611100  1
  Cu  Cu4  1  0.33333400  0.04166600  0.48611100  1
  Cu  Cu5  1  0.66666700  0.04166600  0.48611100  1
  Cu  Cu6  1  0.00488238  0.37124901  0.54350832  1
  Cu  Cu7  1  0.33588865  0.37172120  0.54321256  1
  Cu  Cu8  1  0.66903852  0.37102522  0.54283228  1
  Cu  Cu9  1  0.16666700  0.37500000  0.45833300  1
  Cu  Cu10  1  0.50000000  0.37500000  0.45833300  1
  Cu  Cu11  1  0.83333400  0.37500000  0.45833300  1
  Cu  Cu12  1  0.16823579  0.70743174  0.51356974  1
  Cu  Cu13  1  0.50157531  0.70704314  0.51342444  1
  Cu  Cu14  1  0.83524017  0.70782829  0.51339123  1
  Cu  Cu15  1  0.00258035  0.70173736  0.59915456  1
  Cu  Cu16  1  0.33715830  0.70371883  0.59945916  1
  Cu  Cu17  1  0.67150935  0.70040720  0.59873154  1
  Cu  Cu18  1  0.00414816  0.03725137  0.65065185  1
  Cu  Cu19  1  0.34099172  0.03492757  0.65277540  1
  Cu  Cu20  1  0.67426559  0.03528874  0.65016829  1
  Cu  Cu21  1  0.17170779  0.03333873  0.56994241  1
  Cu  Cu22  1  0.50259133  0.03193668  0.56940051  1
  Cu  Cu23  1  0.83744191  0.03470488  0.56952875  1
  Cu  Cu24  1  0.16791881  0.38171208  0.63129220  1
  Cu  Cu25  1  0.50990948  0.37624761  0.62855486  1
  Cu  Cu26  1  0.83877348  0.37174274  0.62646009  1
  C  C27  1  0.34101819  0.31987619  0.68314921  1
  H  H28  1  0.45419839  0.34146787  0.74912144  1
  O  O29  1  0.35025432  0.39707253  0.73008084  1
