# generated using pymatgen
data_Cu27H
_symmetry_space_group_name_H-M   'P 1'
_cell_length_a   7.56931204
_cell_length_b   6.17958932
_cell_length_c   26.20755800
_cell_angle_alpha   89.93253853
_cell_angle_beta   90.00615399
_cell_angle_gamma   90.00637696
_symmetry_Int_Tables_number   1
_chemical_formula_structural   Cu27H
_chemical_formula_sum   'Cu27 H1'
_cell_volume   1225.86394768
_cell_formula_units_Z   1
loop_
 _symmetry_equiv_pos_site_id
 _symmetry_equiv_pos_as_xyz
  1  'x, y, z'
loop_
 _atom_site_type_symbol
 _atom_site_label
 _atom_site_symmetry_multiplicity
 _atom_site_fract_x
 _atom_site_fract_y
 _atom_site_fract_z
 _atom_site_occupancy
  Cu  Cu0  1  0.00000100  0.70833300  0.43055600  1
  Cu  Cu1  1  0.33333400  0.70833300  0.43055600  1
  Cu  Cu2  1  0.66666700  0.70833300  0.43055600  1
  Cu  Cu3  1  0.00000100  0.04166600  0.48611100  1
  Cu  Cu4  1  0.33333400  0.04166600  0.48611100  1
  Cu  Cu5  1  0.66666700  0.04166600  0.48611100  1
  Cu  Cu6  1  0.00173422  0.36794502  0.54334035  1
  Cu  Cu7  1  0.33336193  0.36857559  0.54284272  1
  Cu  Cu8  1  0.66501156  0.36797593  0.54333863  1
  Cu  Cu9  1  0.16666700  0.37500000  0.45833300  1
  Cu  Cu10  1  0.50000000  0.37500000  0.45833300  1
  Cu  Cu11  1  0.83333400  0.37500000  0.45833300  1
  Cu  Cu12  1  0.16670041  0.70560209  0.51327940  1
  Cu  Cu13  1  0.49994773  0.70559511  0.51327475  1
  Cu  Cu14  1  0.83336042  0.70621886  0.51346740  1
  Cu  Cu15  1  0.00081518  0.69272928  0.59955178  1
  Cu  Cu16  1  0.33340947  0.69769104  0.59968523  1
  Cu  Cu17  1  0.66594681  0.69272351  0.59954257  1
  Cu  Cu18  1  0.99881223  0.02752803  0.65124651  1
  Cu  Cu19  1  0.33335225  0.03095891  0.65119590  1
  Cu  Cu20  1  0.66786551  0.02759530  0.65124001  1
  Cu  Cu21  1  0.16630467  0.02767540  0.56991320  1
  Cu  Cu22  1  0.50033616  0.02770506  0.56990054  1
  Cu  Cu23  1  0.83332460  0.02831999  0.57020913  1
  Cu  Cu24  1  0.16566297  0.36732792  0.62907301  1
  Cu  Cu25  1  0.50107285  0.36729897  0.62905765  1
  Cu  Cu26  1  0.83338105  0.36293235  0.62688163  1
  H  H27  1  0.33346440  0.29420976  0.67106198  1
