# generated using pymatgen
data_Rh27CO
_symmetry_space_group_name_H-M   'P 1'
_cell_length_a   8.03672266
_cell_length_b   8.03669826
_cell_length_c   21.92791400
_cell_angle_alpha   86.49772645
_cell_angle_beta   86.49795137
_cell_angle_gamma   59.99991575
_symmetry_Int_Tables_number   1
_chemical_formula_structural   Rh27CO
_chemical_formula_sum   'Rh27 C1 O1'
_cell_volume   1223.49202859
_cell_formula_units_Z   1
loop_
 _symmetry_equiv_pos_site_id
 _symmetry_equiv_pos_as_xyz
  1  'x, y, z'
loop_
 _atom_site_type_symbol
 _atom_site_label
 _atom_site_symmetry_multiplicity
 _atom_site_fract_x
 _atom_site_fract_y
 _atom_site_fract_z
 _atom_site_occupancy
  Rh  Rh0  1  0.06666700  0.06666700  0.40000000  1
  Rh  Rh1  1  0.06666700  0.40000000  0.40000000  1
  Rh  Rh2  1  0.06666700  0.73333300  0.40000000  1
  Rh  Rh3  1  0.40000000  0.06666700  0.40000000  1
  Rh  Rh4  1  0.40000000  0.40000000  0.40000000  1
  Rh  Rh5  1  0.40000000  0.73333300  0.40000000  1
  Rh  Rh6  1  0.73333300  0.06666700  0.40000000  1
  Rh  Rh7  1  0.73333300  0.40000000  0.40000000  1
  Rh  Rh8  1  0.73333300  0.73333300  0.40000000  1
  Rh  Rh9  1  0.16681506  0.16676331  0.49860289  1
  Rh  Rh10  1  0.16682090  0.50025110  0.49860060  1
  Rh  Rh11  1  0.16761653  0.83311518  0.49853993  1
  Rh  Rh12  1  0.50028931  0.16677666  0.49859769  1
  Rh  Rh13  1  0.50186357  0.50183818  0.49945633  1
  Rh  Rh14  1  0.50184873  0.82987496  0.49943488  1
  Rh  Rh15  1  0.83314336  0.16758956  0.49854011  1
  Rh  Rh16  1  0.82996694  0.50179597  0.49939768  1
  Rh  Rh17  1  0.83314270  0.83311368  0.49853841  1
  Rh  Rh18  1  0.26703036  0.26696880  0.59722575  1
  Rh  Rh19  1  0.26409778  0.60082354  0.59735176  1
  Rh  Rh20  1  0.26409010  0.93601133  0.59734884  1
  Rh  Rh21  1  0.60084277  0.26403992  0.59735155  1
  Rh  Rh22  1  0.59920583  0.59909387  0.60804421  1
  Rh  Rh23  1  0.60083088  0.93607320  0.59734593  1
  Rh  Rh24  1  0.93611545  0.26400859  0.59734535  1
  Rh  Rh25  1  0.93613637  0.60079165  0.59734262  1
  Rh  Rh26  1  0.93368666  0.93364686  0.59715262  1
  O  O27  1  0.59075442  0.58261934  0.74422538  1
  C  C28  1  0.59383953  0.58919397  0.69036181  1
