# generated using pymatgen
data_HRh27
_symmetry_space_group_name_H-M   'P 1'
_cell_length_a   8.03672266
_cell_length_b   8.03669826
_cell_length_c   21.92791400
_cell_angle_alpha   86.49772645
_cell_angle_beta   86.49795137
_cell_angle_gamma   59.99991575
_symmetry_Int_Tables_number   1
_chemical_formula_structural   HRh27
_chemical_formula_sum   'H1 Rh27'
_cell_volume   1223.49202859
_cell_formula_units_Z   1
loop_
 _symmetry_equiv_pos_site_id
 _symmetry_equiv_pos_as_xyz
  1  'x, y, z'
loop_
 _atom_site_type_symbol
 _atom_site_label
 _atom_site_symmetry_multiplicity
 _atom_site_fract_x
 _atom_site_fract_y
 _atom_site_fract_z
 _atom_site_occupancy
  Rh  Rh0  1  0.06666700  0.06666700  0.40000000  1
  Rh  Rh1  1  0.06666700  0.40000000  0.40000000  1
  Rh  Rh2  1  0.06666700  0.73333300  0.40000000  1
  Rh  Rh3  1  0.40000000  0.06666700  0.40000000  1
  Rh  Rh4  1  0.40000000  0.40000000  0.40000000  1
  Rh  Rh5  1  0.40000000  0.73333300  0.40000000  1
  Rh  Rh6  1  0.73333300  0.06666700  0.40000000  1
  Rh  Rh7  1  0.73333300  0.40000000  0.40000000  1
  Rh  Rh8  1  0.73333300  0.73333300  0.40000000  1
  Rh  Rh9  1  0.16688113  0.16687942  0.49840850  1
  Rh  Rh10  1  0.16696440  0.50051704  0.49838873  1
  Rh  Rh11  1  0.16792079  0.83320782  0.49816380  1
  Rh  Rh12  1  0.50051881  0.16696259  0.49838877  1
  Rh  Rh13  1  0.50196899  0.50196716  0.49948987  1
  Rh  Rh14  1  0.50186543  0.83024854  0.49940343  1
  Rh  Rh15  1  0.83320959  0.16791892  0.49816381  1
  Rh  Rh16  1  0.83025015  0.50186370  0.49940344  1
  Rh  Rh17  1  0.83323826  0.83323653  0.49814108  1
  Rh  Rh18  1  0.26732164  0.26731763  0.59659193  1
  Rh  Rh19  1  0.26554925  0.60144565  0.59699771  1
  Rh  Rh20  1  0.26534011  0.93493191  0.59698153  1
  Rh  Rh21  1  0.60144955  0.26554543  0.59699770  1
  Rh  Rh22  1  0.60008520  0.60008150  0.60584146  1
  Rh  Rh23  1  0.60147296  0.93518326  0.59695653  1
  Rh  Rh24  1  0.93493568  0.26533645  0.59698155  1
  Rh  Rh25  1  0.93518705  0.60146903  0.59695653  1
  Rh  Rh26  1  0.93399243  0.93398862  0.59645266  1
  H  H27  1  0.59450014  0.59449693  0.68146693  1
