# generated using pymatgen
data_Cu27H
_symmetry_space_group_name_H-M   'P 1'
_cell_length_a   7.56931204
_cell_length_b   6.17958932
_cell_length_c   26.20755800
_cell_angle_alpha   89.93253853
_cell_angle_beta   90.00615399
_cell_angle_gamma   90.00637696
_symmetry_Int_Tables_number   1
_chemical_formula_structural   Cu27H
_chemical_formula_sum   'Cu27 H1'
_cell_volume   1225.86394768
_cell_formula_units_Z   1
loop_
 _symmetry_equiv_pos_site_id
 _symmetry_equiv_pos_as_xyz
  1  'x, y, z'
loop_
 _atom_site_type_symbol
 _atom_site_label
 _atom_site_symmetry_multiplicity
 _atom_site_fract_x
 _atom_site_fract_y
 _atom_site_fract_z
 _atom_site_occupancy
  Cu  Cu0  1  0.00000100  0.70833300  0.43055600  1
  Cu  Cu1  1  0.33333400  0.70833300  0.43055600  1
  Cu  Cu2  1  0.66666700  0.70833300  0.43055600  1
  Cu  Cu3  1  0.00000100  0.04166600  0.48611100  1
  Cu  Cu4  1  0.33333400  0.04166600  0.48611100  1
  Cu  Cu5  1  0.66666700  0.04166600  0.48611100  1
  Cu  Cu6  1  0.00001235  0.37164365  0.54260977  1
  Cu  Cu7  1  0.33420880  0.37100736  0.54330132  1
  Cu  Cu8  1  0.66581732  0.37100859  0.54329948  1
  Cu  Cu9  1  0.16666700  0.37500000  0.45833300  1
  Cu  Cu10  1  0.50000000  0.37500000  0.45833300  1
  Cu  Cu11  1  0.83333400  0.37500000  0.45833300  1
  Cu  Cu12  1  0.16656814  0.70836777  0.51341847  1
  Cu  Cu13  1  0.50000893  0.70698877  0.51314329  1
  Cu  Cu14  1  0.83345362  0.70836849  0.51341883  1
  Cu  Cu15  1  0.00002914  0.70029805  0.59946380  1
  Cu  Cu16  1  0.33384765  0.69966040  0.59961432  1
  Cu  Cu17  1  0.66620735  0.69966149  0.59961254  1
  Cu  Cu18  1  0.00001592  0.03617965  0.65132341  1
  Cu  Cu19  1  0.33328763  0.03851350  0.65215132  1
  Cu  Cu20  1  0.66674820  0.03851201  0.65215072  1
  Cu  Cu21  1  0.16812939  0.03302077  0.57063724  1
  Cu  Cu22  1  0.50001051  0.03018109  0.56935749  1
  Cu  Cu23  1  0.83189347  0.03302289  0.57063684  1
  Cu  Cu24  1  0.16512329  0.37173438  0.62683947  1
  Cu  Cu25  1  0.50002923  0.37420562  0.62930324  1
  Cu  Cu26  1  0.83492829  0.37173626  0.62683917  1
  H  H27  1  0.50004056  0.18724603  0.67962402  1
