# generated using pymatgen
data_Pt27O
_symmetry_space_group_name_H-M   'P 1'
_cell_length_a   8.30563200
_cell_length_b   8.30548099
_cell_length_c   22.66204900
_cell_angle_alpha   86.50247764
_cell_angle_beta   89.99826160
_cell_angle_gamma   119.99933191
_symmetry_Int_Tables_number   1
_chemical_formula_structural   Pt27O
_chemical_formula_sum   'Pt27 O1'
_cell_volume   1350.48407360
_cell_formula_units_Z   1
loop_
 _symmetry_equiv_pos_site_id
 _symmetry_equiv_pos_as_xyz
  1  'x, y, z'
loop_
 _atom_site_type_symbol
 _atom_site_label
 _atom_site_symmetry_multiplicity
 _atom_site_fract_x
 _atom_site_fract_y
 _atom_site_fract_z
 _atom_site_occupancy
  Pt  Pt0  1  0.06666700  0.13333400  0.40000000  1
  Pt  Pt1  1  0.06666700  0.46666700  0.40000000  1
  Pt  Pt2  1  0.06666700  0.80000100  0.40000000  1
  Pt  Pt3  1  0.40000000  0.13333400  0.40000000  1
  Pt  Pt4  1  0.40000000  0.46666700  0.40000000  1
  Pt  Pt5  1  0.40000000  0.80000100  0.40000000  1
  Pt  Pt6  1  0.73333400  0.13333400  0.40000000  1
  Pt  Pt7  1  0.73333400  0.46666700  0.40000000  1
  Pt  Pt8  1  0.73333400  0.80000100  0.40000000  1
  Pt  Pt9  1  0.16680585  0.00028326  0.50009460  1
  Pt  Pt10  1  0.16625339  0.33370041  0.50258607  1
  Pt  Pt11  1  0.16623351  0.66547546  0.50260172  1
  Pt  Pt12  1  0.50081642  0.00003356  0.50260553  1
  Pt  Pt13  1  0.50077374  0.33370408  0.50258623  1
  Pt  Pt14  1  0.49986362  0.66640519  0.50288221  1
  Pt  Pt15  1  0.83254160  0.00003244  0.50260517  1
  Pt  Pt16  1  0.83333909  0.33335342  0.50135095  1
  Pt  Pt17  1  0.83256573  0.66547263  0.50260218  1
  Pt  Pt18  1  0.26478006  0.19624155  0.60277601  1
  Pt  Pt19  1  0.26050654  0.52947928  0.60785477  1
  Pt  Pt20  1  0.26479600  0.86861829  0.60277775  1
  Pt  Pt21  1  0.60095863  0.20024048  0.60437253  1
  Pt  Pt22  1  0.60230695  0.52949378  0.60785446  1
  Pt  Pt23  1  0.60225939  0.87119354  0.60797671  1
  Pt  Pt24  1  0.93260361  0.20023828  0.60437294  1
  Pt  Pt25  1  0.93261848  0.53191131  0.60438587  1
  Pt  Pt26  1  0.93715528  0.86862626  0.60277692  1
  O  O27  1  0.48220057  0.63107611  0.66215234  1
