# generated using pymatgen
data_H(Ir6O11)2
_symmetry_space_group_name_H-M   'P 1'
_cell_length_a   6.34574200
_cell_length_b   6.38387200
_cell_length_c   25.53556900
_cell_angle_alpha   90.00000000
_cell_angle_beta   90.00000000
_cell_angle_gamma   90.00000000
_symmetry_Int_Tables_number   1
_chemical_formula_structural   H(Ir6O11)2
_chemical_formula_sum   'Ir12 H1 O22'
_cell_volume   1034.45623375
_cell_formula_units_Z   1
loop_
 _symmetry_equiv_pos_site_id
 _symmetry_equiv_pos_as_xyz
  1  'x, y, z'
loop_
 _atom_site_type_symbol
 _atom_site_label
 _atom_site_symmetry_multiplicity
 _atom_site_fract_x
 _atom_site_fract_y
 _atom_site_fract_z
 _atom_site_occupancy
  Ir  Ir0  1  0.25000000  0.00000000  0.37500000  1
  Ir  Ir1  1  0.75000000  0.00000000  0.37500000  1
  Ir  Ir2  1  0.00000000  0.50000000  0.37500100  1
  Ir  Ir3  1  0.50000000  0.50000000  0.37500100  1
  Ir  Ir4  1  0.25155942  0.49965413  0.50028908  1
  Ir  Ir5  1  0.74855456  0.49921792  0.50032674  1
  Ir  Ir6  1  0.00036224  0.99928518  0.50011079  1
  Ir  Ir7  1  0.50026027  0.99938029  0.49988760  1
  Ir  Ir8  1  0.25281435  0.99105484  0.62365223  1
  Ir  Ir9  1  0.74899900  0.99162290  0.62322484  1
  Ir  Ir10  1  0.00072880  0.49110524  0.62465996  1
  Ir  Ir11  1  0.50071500  0.49155521  0.62989791  1
  O  O12  1  0.25000000  0.69160400  0.37500200  1
  O  O13  1  0.75000000  0.69160400  0.37500200  1
  O  O14  1  0.25000000  0.30839600  0.37500200  1
  O  O15  1  0.75000000  0.30839600  0.37500200  1
  O  O16  1  0.00000000  0.50000000  0.45209900  1
  O  O17  1  0.50000000  0.50000000  0.45209900  1
  O  O18  1  0.25033237  0.19132692  0.50077594  1
  O  O19  1  0.75028878  0.19111013  0.50084270  1
  O  O20  1  0.00000000  0.00000000  0.42290400  1
  O  O21  1  0.50000000  0.00000000  0.42290400  1
  O  O22  1  0.25044591  0.80772233  0.50000152  1
  O  O23  1  0.74991644  0.80758431  0.50010597  1
  O  O24  1  0.00143454  0.99360009  0.57824111  1
  O  O25  1  0.50063752  0.99247466  0.57819853  1
  O  O26  1  0.24833173  0.68647678  0.63006405  1
  O  O27  1  0.75104157  0.68580498  0.63000010  1
  O  O28  1  0.00027193  0.50379645  0.54808443  1
  O  O29  1  0.49991076  0.49921820  0.54955454  1
  O  O30  1  0.25016206  0.29707907  0.62921332  1
  O  O31  1  0.75380702  0.29614389  0.62943367  1
  O  O32  1  0.51279973  0.46846867  0.70674875  1
  O  O33  1  0.43059679  0.65492967  0.73469140  1
  H  H34  1  0.55590001  0.74687519  0.73540718  1
