# generated using pymatgen
data_HPt27N2
_symmetry_space_group_name_H-M   'P 1'
_cell_length_a   8.30563200
_cell_length_b   8.30548099
_cell_length_c   22.66204900
_cell_angle_alpha   86.50247764
_cell_angle_beta   89.99826160
_cell_angle_gamma   119.99933191
_symmetry_Int_Tables_number   1
_chemical_formula_structural   HPt27N2
_chemical_formula_sum   'H1 Pt27 N2'
_cell_volume   1350.48407360
_cell_formula_units_Z   1
loop_
 _symmetry_equiv_pos_site_id
 _symmetry_equiv_pos_as_xyz
  1  'x, y, z'
loop_
 _atom_site_type_symbol
 _atom_site_label
 _atom_site_symmetry_multiplicity
 _atom_site_fract_x
 _atom_site_fract_y
 _atom_site_fract_z
 _atom_site_occupancy
  Pt  Pt0  1  0.06666700  0.13333400  0.40000000  1
  Pt  Pt1  1  0.06666700  0.46666700  0.40000000  1
  Pt  Pt2  1  0.06666700  0.80000100  0.40000000  1
  Pt  Pt3  1  0.40000000  0.13333400  0.40000000  1
  Pt  Pt4  1  0.40000000  0.46666700  0.40000000  1
  Pt  Pt5  1  0.40000000  0.80000100  0.40000000  1
  Pt  Pt6  1  0.73333400  0.13333400  0.40000000  1
  Pt  Pt7  1  0.73333400  0.46666700  0.40000000  1
  Pt  Pt8  1  0.73333400  0.80000100  0.40000000  1
  Pt  Pt9  1  0.16772146  0.00034614  0.50186662  1
  Pt  Pt10  1  0.16753966  0.33426655  0.50244303  1
  Pt  Pt11  1  0.16851276  0.66777801  0.50167278  1
  Pt  Pt12  1  0.50015056  0.99965988  0.50162450  1
  Pt  Pt13  1  0.50079722  0.33488940  0.50407256  1
  Pt  Pt14  1  0.50142728  0.66557934  0.50494796  1
  Pt  Pt15  1  0.83343009  0.00023536  0.50238609  1
  Pt  Pt16  1  0.83390267  0.33393851  0.50199758  1
  Pt  Pt17  1  0.83227039  0.66627974  0.50403639  1
  Pt  Pt18  1  0.26601593  0.19924586  0.60468680  1
  Pt  Pt19  1  0.26701344  0.53389708  0.60563792  1
  Pt  Pt20  1  0.26789731  0.86732046  0.60464877  1
  Pt  Pt21  1  0.60100282  0.19850342  0.60338746  1
  Pt  Pt22  1  0.60005879  0.53275345  0.61466266  1
  Pt  Pt23  1  0.60092685  0.86795167  0.60553796  1
  Pt  Pt24  1  0.93448464  0.20067606  0.60522858  1
  Pt  Pt25  1  0.93727457  0.53460771  0.60343059  1
  Pt  Pt26  1  0.93635790  0.86968459  0.60438192  1
  N  N27  1  0.61905276  0.49193321  0.69935051  1
  N  N28  1  0.57435613  0.56164750  0.73724622  1
  H  H29  1  0.60008292  0.52139581  0.77932112  1
