# generated using pymatgen
data_HPt27CO
_symmetry_space_group_name_H-M   'P 1'
_cell_length_a   8.30563200
_cell_length_b   8.30548099
_cell_length_c   22.66204900
_cell_angle_alpha   86.50247764
_cell_angle_beta   89.99826160
_cell_angle_gamma   119.99933191
_symmetry_Int_Tables_number   1
_chemical_formula_structural   HPt27CO
_chemical_formula_sum   'H1 Pt27 C1 O1'
_cell_volume   1350.48407360
_cell_formula_units_Z   1
loop_
 _symmetry_equiv_pos_site_id
 _symmetry_equiv_pos_as_xyz
  1  'x, y, z'
loop_
 _atom_site_type_symbol
 _atom_site_label
 _atom_site_symmetry_multiplicity
 _atom_site_fract_x
 _atom_site_fract_y
 _atom_site_fract_z
 _atom_site_occupancy
  Pt  Pt0  1  0.06666700  0.13333400  0.40000000  1
  Pt  Pt1  1  0.06666700  0.46666700  0.40000000  1
  Pt  Pt2  1  0.06666700  0.80000100  0.40000000  1
  Pt  Pt3  1  0.40000000  0.13333400  0.40000000  1
  Pt  Pt4  1  0.40000000  0.46666700  0.40000000  1
  Pt  Pt5  1  0.40000000  0.80000100  0.40000000  1
  Pt  Pt6  1  0.73333400  0.13333400  0.40000000  1
  Pt  Pt7  1  0.73333400  0.46666700  0.40000000  1
  Pt  Pt8  1  0.73333400  0.80000100  0.40000000  1
  Pt  Pt9  1  0.17044447  0.00158483  0.50193733  1
  Pt  Pt10  1  0.16890138  0.33409362  0.50266372  1
  Pt  Pt11  1  0.17048903  0.66846125  0.50184680  1
  Pt  Pt12  1  0.50203723  0.00071087  0.50222894  1
  Pt  Pt13  1  0.50273176  0.33558147  0.50464295  1
  Pt  Pt14  1  0.50292647  0.66619662  0.50460474  1
  Pt  Pt15  1  0.83497392  0.00073378  0.50234604  1
  Pt  Pt16  1  0.83504774  0.33386060  0.50232738  1
  Pt  Pt17  1  0.83434915  0.66675700  0.50327772  1
  Pt  Pt18  1  0.27105847  0.20150793  0.60563587  1
  Pt  Pt19  1  0.27145680  0.53481411  0.60548021  1
  Pt  Pt20  1  0.27125161  0.86822232  0.60546937  1
  Pt  Pt21  1  0.60423677  0.19994824  0.60499900  1
  Pt  Pt22  1  0.60690716  0.53368641  0.61561164  1
  Pt  Pt23  1  0.60419085  0.86919026  0.60528518  1
  Pt  Pt24  1  0.93828457  0.20169858  0.60589344  1
  Pt  Pt25  1  0.94108580  0.53552919  0.60302890  1
  Pt  Pt26  1  0.94085428  0.87168937  0.60312464  1
  C  C27  1  0.63256587  0.53269199  0.70083587  1
  H  H28  1  0.49940414  0.48756319  0.72600257  1
  O  O29  1  0.77345376  0.57491784  0.72827738  1
