# generated using pymatgen
data_HPt27O
_symmetry_space_group_name_H-M   'P 1'
_cell_length_a   8.30563200
_cell_length_b   8.30548099
_cell_length_c   22.66204900
_cell_angle_alpha   86.50247764
_cell_angle_beta   89.99826160
_cell_angle_gamma   119.99933191
_symmetry_Int_Tables_number   1
_chemical_formula_structural   HPt27O
_chemical_formula_sum   'H1 Pt27 O1'
_cell_volume   1350.48407360
_cell_formula_units_Z   1
loop_
 _symmetry_equiv_pos_site_id
 _symmetry_equiv_pos_as_xyz
  1  'x, y, z'
loop_
 _atom_site_type_symbol
 _atom_site_label
 _atom_site_symmetry_multiplicity
 _atom_site_fract_x
 _atom_site_fract_y
 _atom_site_fract_z
 _atom_site_occupancy
  Pt  Pt0  1  0.06666700  0.13333400  0.40000000  1
  Pt  Pt1  1  0.06666700  0.46666700  0.40000000  1
  Pt  Pt2  1  0.06666700  0.80000100  0.40000000  1
  Pt  Pt3  1  0.40000000  0.13333400  0.40000000  1
  Pt  Pt4  1  0.40000000  0.46666700  0.40000000  1
  Pt  Pt5  1  0.40000000  0.80000100  0.40000000  1
  Pt  Pt6  1  0.73333400  0.13333400  0.40000000  1
  Pt  Pt7  1  0.73333400  0.46666700  0.40000000  1
  Pt  Pt8  1  0.73333400  0.80000100  0.40000000  1
  Pt  Pt9  1  0.16848484  0.00281247  0.50105195  1
  Pt  Pt10  1  0.16804545  0.33600289  0.50160879  1
  Pt  Pt11  1  0.16821016  0.66975674  0.50111061  1
  Pt  Pt12  1  0.50099118  0.00281249  0.50105241  1
  Pt  Pt13  1  0.50145165  0.33624245  0.50284705  1
  Pt  Pt14  1  0.50201729  0.66783263  0.50312664  1
  Pt  Pt15  1  0.83444682  0.00223448  0.50148586  1
  Pt  Pt16  1  0.83462041  0.33600265  0.50160921  1
  Pt  Pt17  1  0.83247760  0.66783301  0.50312254  1
  Pt  Pt18  1  0.26863343  0.20469909  0.60330093  1
  Pt  Pt19  1  0.26737732  0.53933536  0.60327990  1
  Pt  Pt20  1  0.26960552  0.87255068  0.60354803  1
  Pt  Pt21  1  0.60272086  0.20470754  0.60329924  1
  Pt  Pt22  1  0.60307455  0.53951238  0.60756228  1
  Pt  Pt23  1  0.60308799  0.87600497  0.60286770  1
  Pt  Pt24  1  0.93638067  0.20610464  0.60383105  1
  Pt  Pt25  1  0.93861811  0.53934326  0.60327767  1
  Pt  Pt26  1  0.93957194  0.87599728  0.60286288  1
  O  O27  1  0.60957243  0.55238339  0.69330962  1
  H  H28  1  0.54609125  0.42568596  0.71356797  1
