# generated using pymatgen
data_Pt27N2
_symmetry_space_group_name_H-M   'P 1'
_cell_length_a   8.30563200
_cell_length_b   8.30548099
_cell_length_c   22.66204900
_cell_angle_alpha   86.50247764
_cell_angle_beta   89.99826160
_cell_angle_gamma   119.99933191
_symmetry_Int_Tables_number   1
_chemical_formula_structural   Pt27N2
_chemical_formula_sum   'Pt27 N2'
_cell_volume   1350.48407360
_cell_formula_units_Z   1
loop_
 _symmetry_equiv_pos_site_id
 _symmetry_equiv_pos_as_xyz
  1  'x, y, z'
loop_
 _atom_site_type_symbol
 _atom_site_label
 _atom_site_symmetry_multiplicity
 _atom_site_fract_x
 _atom_site_fract_y
 _atom_site_fract_z
 _atom_site_occupancy
  Pt  Pt0  1  0.06666700  0.13333400  0.40000000  1
  Pt  Pt1  1  0.06666700  0.46666700  0.40000000  1
  Pt  Pt2  1  0.06666700  0.80000100  0.40000000  1
  Pt  Pt3  1  0.40000000  0.13333400  0.40000000  1
  Pt  Pt4  1  0.40000000  0.46666700  0.40000000  1
  Pt  Pt5  1  0.40000000  0.80000100  0.40000000  1
  Pt  Pt6  1  0.73333400  0.13333400  0.40000000  1
  Pt  Pt7  1  0.73333400  0.46666700  0.40000000  1
  Pt  Pt8  1  0.73333400  0.80000100  0.40000000  1
  Pt  Pt9  1  0.16708819  0.99948727  0.50133429  1
  Pt  Pt10  1  0.16644703  0.33261050  0.50192481  1
  Pt  Pt11  1  0.16680587  0.66686556  0.50134668  1
  Pt  Pt12  1  0.49914177  0.99949046  0.50133609  1
  Pt  Pt13  1  0.50037047  0.33398204  0.50445247  1
  Pt  Pt14  1  0.50000920  0.66506044  0.50393985  1
  Pt  Pt15  1  0.83304515  0.99934144  0.50184127  1
  Pt  Pt16  1  0.83291527  0.33261143  0.50192871  1
  Pt  Pt17  1  0.83179122  0.66504524  0.50394822  1
  Pt  Pt18  1  0.26197285  0.19433181  0.60412825  1
  Pt  Pt19  1  0.26208051  0.53104578  0.60382178  1
  Pt  Pt20  1  0.26561141  0.86437323  0.60450822  1
  Pt  Pt21  1  0.59919233  0.19432610  0.60413567  1
  Pt  Pt22  1  0.59792150  0.52899696  0.61079437  1
  Pt  Pt23  1  0.59933245  0.86839365  0.60365037  1
  Pt  Pt24  1  0.93228233  0.19773080  0.60512027  1
  Pt  Pt25  1  0.93579845  0.53105662  0.60383439  1
  Pt  Pt26  1  0.93590539  0.86839035  0.60364903  1
  N  N27  1  0.59372297  0.52082210  0.69505252  1
  N  N28  1  0.59242281  0.51830768  0.74471471  1
