# generated using pymatgen
data_HRh27
_symmetry_space_group_name_H-M   'P 1'
_cell_length_a   8.03672266
_cell_length_b   8.03669826
_cell_length_c   21.92791400
_cell_angle_alpha   86.49772645
_cell_angle_beta   86.49795137
_cell_angle_gamma   59.99991575
_symmetry_Int_Tables_number   1
_chemical_formula_structural   HRh27
_chemical_formula_sum   'H1 Rh27'
_cell_volume   1223.49202859
_cell_formula_units_Z   1
loop_
 _symmetry_equiv_pos_site_id
 _symmetry_equiv_pos_as_xyz
  1  'x, y, z'
loop_
 _atom_site_type_symbol
 _atom_site_label
 _atom_site_symmetry_multiplicity
 _atom_site_fract_x
 _atom_site_fract_y
 _atom_site_fract_z
 _atom_site_occupancy
  Rh  Rh0  1  0.06666700  0.06666700  0.40000000  1
  Rh  Rh1  1  0.06666700  0.40000000  0.40000000  1
  Rh  Rh2  1  0.06666700  0.73333300  0.40000000  1
  Rh  Rh3  1  0.40000000  0.06666700  0.40000000  1
  Rh  Rh4  1  0.40000000  0.40000000  0.40000000  1
  Rh  Rh5  1  0.40000000  0.73333300  0.40000000  1
  Rh  Rh6  1  0.73333300  0.06666700  0.40000000  1
  Rh  Rh7  1  0.73333300  0.40000000  0.40000000  1
  Rh  Rh8  1  0.73333300  0.73333300  0.40000000  1
  Rh  Rh9  1  0.16691095  0.16690859  0.49848228  1
  Rh  Rh10  1  0.16716833  0.50050294  0.49874938  1
  Rh  Rh11  1  0.16717001  0.83296128  0.49875015  1
  Rh  Rh12  1  0.50050521  0.16716603  0.49874941  1
  Rh  Rh13  1  0.50021257  0.50021022  0.49882223  1
  Rh  Rh14  1  0.50050994  0.83296475  0.49875046  1
  Rh  Rh15  1  0.83296358  0.16716768  0.49875017  1
  Rh  Rh16  1  0.83296700  0.50050774  0.49875046  1
  Rh  Rh17  1  0.83358242  0.83358003  0.49840162  1
  Rh  Rh18  1  0.26618965  0.26618502  0.59693227  1
  Rh  Rh19  1  0.26281497  0.60225334  0.59908645  1
  Rh  Rh20  1  0.26618937  0.93568182  0.59693283  1
  Rh  Rh21  1  0.60225805  0.26281030  0.59908645  1
  Rh  Rh22  1  0.60229468  0.60228986  0.59909100  1
  Rh  Rh23  1  0.60057991  0.93372119  0.59709215  1
  Rh  Rh24  1  0.93568662  0.26618458  0.59693288  1
  Rh  Rh25  1  0.93372596  0.60057513  0.59709216  1
  Rh  Rh26  1  0.93371558  0.93371077  0.59709508  1
  H  H27  1  0.48438983  0.48438482  0.64295934  1
