# generated using pymatgen
data_HPt27O2
_symmetry_space_group_name_H-M   'P 1'
_cell_length_a   8.30563200
_cell_length_b   8.30548099
_cell_length_c   22.66204900
_cell_angle_alpha   86.50247764
_cell_angle_beta   89.99826160
_cell_angle_gamma   119.99933191
_symmetry_Int_Tables_number   1
_chemical_formula_structural   HPt27O2
_chemical_formula_sum   'H1 Pt27 O2'
_cell_volume   1350.48407360
_cell_formula_units_Z   1
loop_
 _symmetry_equiv_pos_site_id
 _symmetry_equiv_pos_as_xyz
  1  'x, y, z'
loop_
 _atom_site_type_symbol
 _atom_site_label
 _atom_site_symmetry_multiplicity
 _atom_site_fract_x
 _atom_site_fract_y
 _atom_site_fract_z
 _atom_site_occupancy
  Pt  Pt0  1  0.06666700  0.13333400  0.40000000  1
  Pt  Pt1  1  0.06666700  0.46666700  0.40000000  1
  Pt  Pt2  1  0.06666700  0.80000100  0.40000000  1
  Pt  Pt3  1  0.40000000  0.13333400  0.40000000  1
  Pt  Pt4  1  0.40000000  0.46666700  0.40000000  1
  Pt  Pt5  1  0.40000000  0.80000100  0.40000000  1
  Pt  Pt6  1  0.73333400  0.13333400  0.40000000  1
  Pt  Pt7  1  0.73333400  0.46666700  0.40000000  1
  Pt  Pt8  1  0.73333400  0.80000100  0.40000000  1
  Pt  Pt9  1  0.16770428  0.00126250  0.50182684  1
  Pt  Pt10  1  0.16774335  0.33545122  0.50226393  1
  Pt  Pt11  1  0.16796327  0.66877855  0.50185082  1
  Pt  Pt12  1  0.49996753  0.00012629  0.50180287  1
  Pt  Pt13  1  0.50073048  0.33433240  0.50345292  1
  Pt  Pt14  1  0.50194695  0.66731234  0.50458696  1
  Pt  Pt15  1  0.83426267  0.00187232  0.50245876  1
  Pt  Pt16  1  0.83430460  0.33512307  0.50214773  1
  Pt  Pt17  1  0.83302879  0.66765430  0.50411478  1
  Pt  Pt18  1  0.26468055  0.19974941  0.60401795  1
  Pt  Pt19  1  0.26598092  0.53599925  0.60461469  1
  Pt  Pt20  1  0.26746279  0.86903722  0.60513054  1
  Pt  Pt21  1  0.60090697  0.19992565  0.60371260  1
  Pt  Pt22  1  0.59924014  0.53260912  0.61020784  1
  Pt  Pt23  1  0.60074322  0.87001923  0.60501002  1
  Pt  Pt24  1  0.93400905  0.20201627  0.60559719  1
  Pt  Pt25  1  0.93667032  0.53579863  0.60418924  1
  Pt  Pt26  1  0.93537334  0.87025591  0.60474339  1
  O  O27  1  0.59312124  0.48009293  0.69819626  1
  O  O28  1  0.59750927  0.62550622  0.73215848  1
  H  H29  1  0.73031065  0.72289930  0.72844102  1
