# generated using pymatgen
data_HRh27O2
_symmetry_space_group_name_H-M   'P 1'
_cell_length_a   8.03672266
_cell_length_b   8.03669826
_cell_length_c   21.92791400
_cell_angle_alpha   86.49772645
_cell_angle_beta   86.49795137
_cell_angle_gamma   59.99991575
_symmetry_Int_Tables_number   1
_chemical_formula_structural   HRh27O2
_chemical_formula_sum   'H1 Rh27 O2'
_cell_volume   1223.49202859
_cell_formula_units_Z   1
loop_
 _symmetry_equiv_pos_site_id
 _symmetry_equiv_pos_as_xyz
  1  'x, y, z'
loop_
 _atom_site_type_symbol
 _atom_site_label
 _atom_site_symmetry_multiplicity
 _atom_site_fract_x
 _atom_site_fract_y
 _atom_site_fract_z
 _atom_site_occupancy
  Rh  Rh0  1  0.06666700  0.06666700  0.40000000  1
  Rh  Rh1  1  0.06666700  0.40000000  0.40000000  1
  Rh  Rh2  1  0.06666700  0.73333300  0.40000000  1
  Rh  Rh3  1  0.40000000  0.06666700  0.40000000  1
  Rh  Rh4  1  0.40000000  0.40000000  0.40000000  1
  Rh  Rh5  1  0.40000000  0.73333300  0.40000000  1
  Rh  Rh6  1  0.73333300  0.06666700  0.40000000  1
  Rh  Rh7  1  0.73333300  0.40000000  0.40000000  1
  Rh  Rh8  1  0.73333300  0.73333300  0.40000000  1
  Rh  Rh9  1  0.16834468  0.16490038  0.49819516  1
  Rh  Rh10  1  0.16804230  0.49975859  0.49787368  1
  Rh  Rh11  1  0.16816910  0.83269765  0.49823515  1
  Rh  Rh12  1  0.50096171  0.16651974  0.49746787  1
  Rh  Rh13  1  0.50204207  0.50057593  0.49917447  1
  Rh  Rh14  1  0.50236887  0.83029379  0.49899791  1
  Rh  Rh15  1  0.83399594  0.16657678  0.49793844  1
  Rh  Rh16  1  0.83476910  0.49941249  0.49783379  1
  Rh  Rh17  1  0.83390991  0.83248362  0.49796608  1
  Rh  Rh18  1  0.26837134  0.26614306  0.59599296  1
  Rh  Rh19  1  0.26697725  0.59981091  0.59631393  1
  Rh  Rh20  1  0.26823804  0.93232902  0.59699031  1
  Rh  Rh21  1  0.60191667  0.26343448  0.59611342  1
  Rh  Rh22  1  0.60552482  0.59584697  0.59729360  1
  Rh  Rh23  1  0.60112624  0.93574478  0.59585922  1
  Rh  Rh24  1  0.93887587  0.26119703  0.59591217  1
  Rh  Rh25  1  0.93886040  0.59923304  0.59619214  1
  Rh  Rh26  1  0.93429111  0.93263547  0.59610125  1
  O  O27  1  0.65654865  0.55696467  0.68371855  1
  O  O28  1  0.48562022  0.68542610  0.71717841  1
  H  H29  1  0.53372411  0.74305274  0.74526888  1
