# generated using pymatgen
data_Ir4O7
_symmetry_space_group_name_H-M   'P 1'
_cell_length_a   6.34574200
_cell_length_b   6.38387200
_cell_length_c   25.53556900
_cell_angle_alpha   90.00000000
_cell_angle_beta   90.00000000
_cell_angle_gamma   90.00000000
_symmetry_Int_Tables_number   1
_chemical_formula_structural   Ir4O7
_chemical_formula_sum   'Ir12 O21'
_cell_volume   1034.45623375
_cell_formula_units_Z   3
loop_
 _symmetry_equiv_pos_site_id
 _symmetry_equiv_pos_as_xyz
  1  'x, y, z'
loop_
 _atom_site_type_symbol
 _atom_site_label
 _atom_site_symmetry_multiplicity
 _atom_site_fract_x
 _atom_site_fract_y
 _atom_site_fract_z
 _atom_site_occupancy
  Ir  Ir0  1  0.25000000  0.00000000  0.37500000  1
  Ir  Ir1  1  0.75000000  0.00000000  0.37500000  1
  Ir  Ir2  1  0.00000000  0.50000000  0.37500100  1
  Ir  Ir3  1  0.50000000  0.50000000  0.37500100  1
  Ir  Ir4  1  0.25195172  0.50000441  0.50051343  1
  Ir  Ir5  1  0.74803900  0.50000494  0.50051416  1
  Ir  Ir6  1  0.99999740  0.00000476  0.49993059  1
  Ir  Ir7  1  0.49999731  0.00000455  0.49997606  1
  Ir  Ir8  1  0.25121111  0.00002984  0.62350372  1
  Ir  Ir9  1  0.74879008  0.00003022  0.62350297  1
  Ir  Ir10  1  0.99999592  0.50003250  0.62480972  1
  Ir  Ir11  1  0.49999245  0.50002374  0.63071609  1
  O  O12  1  0.25000000  0.69160400  0.37500200  1
  O  O13  1  0.75000000  0.69160400  0.37500200  1
  O  O14  1  0.25000000  0.30839600  0.37500200  1
  O  O15  1  0.75000000  0.30839600  0.37500200  1
  O  O16  1  0.00000000  0.50000000  0.45209900  1
  O  O17  1  0.50000000  0.50000000  0.45209900  1
  O  O18  1  0.25010928  0.19175348  0.50045348  1
  O  O19  1  0.74988420  0.19175403  0.50045400  1
  O  O20  1  0.00000000  0.00000000  0.42290400  1
  O  O21  1  0.50000000  0.00000000  0.42290400  1
  O  O22  1  0.25010746  0.80825442  0.50045154  1
  O  O23  1  0.74988553  0.80825465  0.50045222  1
  O  O24  1  0.00000286  0.00000766  0.57808928  1
  O  O25  1  0.50000162  0.00000490  0.57820586  1
  O  O26  1  0.24886182  0.69420837  0.62939223  1
  O  O27  1  0.75112834  0.69420736  0.62939045  1
  O  O28  1  0.99999413  0.49998800  0.54803937  1
  O  O29  1  0.49998842  0.50001151  0.55016933  1
  O  O30  1  0.24886289  0.30585014  0.62938746  1
  O  O31  1  0.75112853  0.30585142  0.62938613  1
  O  O32  1  0.49998459  0.50000098  0.70359556  1
