# generated using pymatgen
data_HPt27
_symmetry_space_group_name_H-M   'P 1'
_cell_length_a   8.30563200
_cell_length_b   8.30548099
_cell_length_c   22.66204900
_cell_angle_alpha   86.50247764
_cell_angle_beta   89.99826160
_cell_angle_gamma   119.99933191
_symmetry_Int_Tables_number   1
_chemical_formula_structural   HPt27
_chemical_formula_sum   'H1 Pt27'
_cell_volume   1350.48407360
_cell_formula_units_Z   1
loop_
 _symmetry_equiv_pos_site_id
 _symmetry_equiv_pos_as_xyz
  1  'x, y, z'
loop_
 _atom_site_type_symbol
 _atom_site_label
 _atom_site_symmetry_multiplicity
 _atom_site_fract_x
 _atom_site_fract_y
 _atom_site_fract_z
 _atom_site_occupancy
  Pt  Pt0  1  0.06666700  0.13333400  0.40000000  1
  Pt  Pt1  1  0.06666700  0.46666700  0.40000000  1
  Pt  Pt2  1  0.06666700  0.80000100  0.40000000  1
  Pt  Pt3  1  0.40000000  0.13333400  0.40000000  1
  Pt  Pt4  1  0.40000000  0.46666700  0.40000000  1
  Pt  Pt5  1  0.40000000  0.80000100  0.40000000  1
  Pt  Pt6  1  0.73333400  0.13333400  0.40000000  1
  Pt  Pt7  1  0.73333400  0.46666700  0.40000000  1
  Pt  Pt8  1  0.73333400  0.80000100  0.40000000  1
  Pt  Pt9  1  0.16671403  0.00009771  0.50231003  1
  Pt  Pt10  1  0.16682570  0.33344998  0.50315008  1
  Pt  Pt11  1  0.16680499  0.66656111  0.50316981  1
  Pt  Pt12  1  0.49996998  0.99959777  0.50313954  1
  Pt  Pt13  1  0.49995082  0.33345226  0.50314949  1
  Pt  Pt14  1  0.49985306  0.66638247  0.50348340  1
  Pt  Pt15  1  0.83295509  0.99959688  0.50313940  1
  Pt  Pt16  1  0.83328044  0.33323630  0.50307241  1
  Pt  Pt17  1  0.83308628  0.66656231  0.50316918  1
  Pt  Pt18  1  0.26589009  0.19846022  0.60553166  1
  Pt  Pt19  1  0.26227695  0.53058963  0.60791410  1
  Pt  Pt20  1  0.26590646  0.86736792  0.60548597  1
  Pt  Pt21  1  0.59978544  0.19960293  0.60616215  1
  Pt  Pt22  1  0.60163009  0.53059996  0.60790950  1
  Pt  Pt23  1  0.60149691  0.86967249  0.60790337  1
  Pt  Pt24  1  0.93313486  0.19960342  0.60616247  1
  Pt  Pt25  1  0.93325454  0.53319369  0.60625920  1
  Pt  Pt26  1  0.93478335  0.86737093  0.60548635  1
  H  H27  1  0.48419334  0.63507624  0.64861569  1
