# generated using pymatgen
data_H(Ir3O5)4
_symmetry_space_group_name_H-M   'P 1'
_cell_length_a   6.34574200
_cell_length_b   6.38387200
_cell_length_c   25.53556900
_cell_angle_alpha   90.00000000
_cell_angle_beta   90.00000000
_cell_angle_gamma   90.00000000
_symmetry_Int_Tables_number   1
_chemical_formula_structural   H(Ir3O5)4
_chemical_formula_sum   'Ir12 H1 O20'
_cell_volume   1034.45623375
_cell_formula_units_Z   1
loop_
 _symmetry_equiv_pos_site_id
 _symmetry_equiv_pos_as_xyz
  1  'x, y, z'
loop_
 _atom_site_type_symbol
 _atom_site_label
 _atom_site_symmetry_multiplicity
 _atom_site_fract_x
 _atom_site_fract_y
 _atom_site_fract_z
 _atom_site_occupancy
  Ir  Ir0  1  0.25000000  0.00000000  0.37500000  1
  Ir  Ir1  1  0.75000000  0.00000000  0.37500000  1
  Ir  Ir2  1  0.00000000  0.50000000  0.37500100  1
  Ir  Ir3  1  0.50000000  0.50000000  0.37500100  1
  Ir  Ir4  1  0.24999570  0.50251164  0.50062345  1
  Ir  Ir5  1  0.74999658  0.50246544  0.50048443  1
  Ir  Ir6  1  0.99976001  0.00193907  0.50030328  1
  Ir  Ir7  1  0.50024494  0.00193815  0.50030243  1
  Ir  Ir8  1  0.25005183  0.97991167  0.62307268  1
  Ir  Ir9  1  0.75004007  0.97948860  0.62524696  1
  Ir  Ir10  1  0.00032371  0.47918333  0.62569085  1
  Ir  Ir11  1  0.49978614  0.47917753  0.62568417  1
  O  O12  1  0.25000000  0.69160400  0.37500200  1
  O  O13  1  0.75000000  0.69160400  0.37500200  1
  O  O14  1  0.25000000  0.30839600  0.37500200  1
  O  O15  1  0.75000000  0.30839600  0.37500200  1
  O  O16  1  0.00000000  0.50000000  0.45209900  1
  O  O17  1  0.50000000  0.50000000  0.45209900  1
  O  O18  1  0.25000637  0.19454599  0.50206859  1
  O  O19  1  0.75000242  0.19456488  0.50191927  1
  O  O20  1  0.00000000  0.00000000  0.42290400  1
  O  O21  1  0.50000000  0.00000000  0.42290400  1
  O  O22  1  0.25000426  0.81083205  0.49939677  1
  O  O23  1  0.75000601  0.81078385  0.49917783  1
  O  O24  1  0.99827382  0.99111723  0.57822812  1
  O  O25  1  0.50180365  0.99112520  0.57822605  1
  O  O26  1  0.25005542  0.67492799  0.63062028  1
  O  O27  1  0.75004287  0.67379143  0.63320402  1
  O  O28  1  0.99885083  0.51905069  0.54926995  1
  O  O29  1  0.50114819  0.51908552  0.54926449  1
  O  O30  1  0.25005582  0.28690280  0.62821152  1
  O  O31  1  0.75004483  0.28727064  0.63134772  1
  H  H32  1  0.24979341  0.41435119  0.76531924  1
