# generated using pymatgen
data_H(Ir3O5)4
_symmetry_space_group_name_H-M   'P 1'
_cell_length_a   6.34574200
_cell_length_b   6.38387200
_cell_length_c   25.53556900
_cell_angle_alpha   90.00000000
_cell_angle_beta   90.00000000
_cell_angle_gamma   90.00000000
_symmetry_Int_Tables_number   1
_chemical_formula_structural   H(Ir3O5)4
_chemical_formula_sum   'Ir12 H1 O20'
_cell_volume   1034.45623375
_cell_formula_units_Z   1
loop_
 _symmetry_equiv_pos_site_id
 _symmetry_equiv_pos_as_xyz
  1  'x, y, z'
loop_
 _atom_site_type_symbol
 _atom_site_label
 _atom_site_symmetry_multiplicity
 _atom_site_fract_x
 _atom_site_fract_y
 _atom_site_fract_z
 _atom_site_occupancy
  Ir  Ir0  1  0.25000000  0.00000000  0.37500000  1
  Ir  Ir1  1  0.75000000  0.00000000  0.37500000  1
  Ir  Ir2  1  0.00000000  0.50000000  0.37500100  1
  Ir  Ir3  1  0.50000000  0.50000000  0.37500100  1
  Ir  Ir4  1  0.24846486  0.49703557  0.50013303  1
  Ir  Ir5  1  0.75283890  0.49703405  0.50014327  1
  Ir  Ir6  1  0.00156196  0.99697767  0.49996389  1
  Ir  Ir7  1  0.50165045  0.99688492  0.50046651  1
  Ir  Ir8  1  0.25139052  0.98895487  0.62419648  1
  Ir  Ir9  1  0.75846793  0.98896028  0.62437138  1
  Ir  Ir10  1  0.00532112  0.48897975  0.63277949  1
  Ir  Ir11  1  0.50538049  0.48885898  0.62508971  1
  O  O12  1  0.25000000  0.69160400  0.37500200  1
  O  O13  1  0.75000000  0.69160400  0.37500200  1
  O  O14  1  0.25000000  0.30839600  0.37500200  1
  O  O15  1  0.75000000  0.30839600  0.37500200  1
  O  O16  1  0.00000000  0.50000000  0.45209900  1
  O  O17  1  0.50000000  0.50000000  0.45209900  1
  O  O18  1  0.25133780  0.18884652  0.50067688  1
  O  O19  1  0.75140033  0.18883617  0.50067017  1
  O  O20  1  0.00000000  0.00000000  0.42290400  1
  O  O21  1  0.50000000  0.00000000  0.42290400  1
  O  O22  1  0.25111703  0.80531177  0.50024330  1
  O  O23  1  0.75162071  0.80533194  0.50023868  1
  O  O24  1  0.00432661  0.99264142  0.57854618  1
  O  O25  1  0.50462621  0.99287701  0.57885591  1
  O  O26  1  0.25606720  0.68415006  0.63125479  1
  O  O27  1  0.75419559  0.68398358  0.63144646  1
  O  O28  1  0.00115257  0.49565983  0.54825543  1
  O  O29  1  0.50124461  0.49834838  0.54828640  1
  O  O30  1  0.25635410  0.29424908  0.63108770  1
  O  O31  1  0.75390855  0.29441819  0.63130806  1
  H  H32  1  0.00768587  0.48624220  0.69469954  1
