# generated using pymatgen
data_HRh27O
_symmetry_space_group_name_H-M   'P 1'
_cell_length_a   8.03672266
_cell_length_b   8.03669826
_cell_length_c   21.92791400
_cell_angle_alpha   86.49772645
_cell_angle_beta   86.49795137
_cell_angle_gamma   59.99991575
_symmetry_Int_Tables_number   1
_chemical_formula_structural   HRh27O
_chemical_formula_sum   'H1 Rh27 O1'
_cell_volume   1223.49202859
_cell_formula_units_Z   1
loop_
 _symmetry_equiv_pos_site_id
 _symmetry_equiv_pos_as_xyz
  1  'x, y, z'
loop_
 _atom_site_type_symbol
 _atom_site_label
 _atom_site_symmetry_multiplicity
 _atom_site_fract_x
 _atom_site_fract_y
 _atom_site_fract_z
 _atom_site_occupancy
  Rh  Rh0  1  0.06666700  0.06666700  0.40000000  1
  Rh  Rh1  1  0.06666700  0.40000000  0.40000000  1
  Rh  Rh2  1  0.06666700  0.73333300  0.40000000  1
  Rh  Rh3  1  0.40000000  0.06666700  0.40000000  1
  Rh  Rh4  1  0.40000000  0.40000000  0.40000000  1
  Rh  Rh5  1  0.40000000  0.73333300  0.40000000  1
  Rh  Rh6  1  0.73333300  0.06666700  0.40000000  1
  Rh  Rh7  1  0.73333300  0.40000000  0.40000000  1
  Rh  Rh8  1  0.73333300  0.73333300  0.40000000  1
  Rh  Rh9  1  0.16738934  0.16738671  0.49820726  1
  Rh  Rh10  1  0.16774888  0.50082082  0.49789698  1
  Rh  Rh11  1  0.16794001  0.83379144  0.49837593  1
  Rh  Rh12  1  0.50082339  0.16774636  0.49789703  1
  Rh  Rh13  1  0.50186799  0.50186538  0.49949517  1
  Rh  Rh14  1  0.50134689  0.83171317  0.49947637  1
  Rh  Rh15  1  0.83379394  0.16793744  0.49837595  1
  Rh  Rh16  1  0.83171556  0.50134442  0.49947637  1
  Rh  Rh17  1  0.83377012  0.83376771  0.49828422  1
  Rh  Rh18  1  0.26832786  0.26832256  0.59676718  1
  Rh  Rh19  1  0.26662448  0.60161116  0.59686588  1
  Rh  Rh20  1  0.26554224  0.93641973  0.59689033  1
  Rh  Rh21  1  0.60161635  0.26661933  0.59686587  1
  Rh  Rh22  1  0.60306037  0.60305510  0.60095758  1
  Rh  Rh23  1  0.60144193  0.93811736  0.59643548  1
  Rh  Rh24  1  0.93642492  0.26553706  0.59689034  1
  Rh  Rh25  1  0.93812246  0.60143674  0.59643549  1
  Rh  Rh26  1  0.93461043  0.93460533  0.59698774  1
  O  O27  1  0.60979918  0.60979370  0.69263100  1
  H  H28  1  0.54261495  0.54260716  0.71027970  1
