# generated using pymatgen
data_HPt27O
_symmetry_space_group_name_H-M   'P 1'
_cell_length_a   8.30563200
_cell_length_b   8.30548099
_cell_length_c   22.66204900
_cell_angle_alpha   86.50247764
_cell_angle_beta   89.99826160
_cell_angle_gamma   119.99933191
_symmetry_Int_Tables_number   1
_chemical_formula_structural   HPt27O
_chemical_formula_sum   'H1 Pt27 O1'
_cell_volume   1350.48407360
_cell_formula_units_Z   1
loop_
 _symmetry_equiv_pos_site_id
 _symmetry_equiv_pos_as_xyz
  1  'x, y, z'
loop_
 _atom_site_type_symbol
 _atom_site_label
 _atom_site_symmetry_multiplicity
 _atom_site_fract_x
 _atom_site_fract_y
 _atom_site_fract_z
 _atom_site_occupancy
  Pt  Pt0  1  0.06666700  0.13333400  0.40000000  1
  Pt  Pt1  1  0.06666700  0.46666700  0.40000000  1
  Pt  Pt2  1  0.06666700  0.80000100  0.40000000  1
  Pt  Pt3  1  0.40000000  0.13333400  0.40000000  1
  Pt  Pt4  1  0.40000000  0.46666700  0.40000000  1
  Pt  Pt5  1  0.40000000  0.80000100  0.40000000  1
  Pt  Pt6  1  0.73333400  0.13333400  0.40000000  1
  Pt  Pt7  1  0.73333400  0.46666700  0.40000000  1
  Pt  Pt8  1  0.73333400  0.80000100  0.40000000  1
  Pt  Pt9  1  0.16689350  0.99932921  0.50166220  1
  Pt  Pt10  1  0.16656664  0.33297860  0.50210269  1
  Pt  Pt11  1  0.16691761  0.66709943  0.50166597  1
  Pt  Pt12  1  0.49915389  0.99945628  0.50165744  1
  Pt  Pt13  1  0.50070863  0.33479685  0.50394491  1
  Pt  Pt14  1  0.50069807  0.66493859  0.50396064  1
  Pt  Pt15  1  0.83312411  0.99950280  0.50211593  1
  Pt  Pt16  1  0.83316043  0.33295807  0.50209927  1
  Pt  Pt17  1  0.83084797  0.66480140  0.50397035  1
  Pt  Pt18  1  0.26360366  0.19643640  0.60406851  1
  Pt  Pt19  1  0.26357666  0.53288405  0.60410573  1
  Pt  Pt20  1  0.26623445  0.86585339  0.60489763  1
  Pt  Pt21  1  0.59949942  0.19660896  0.60406022  1
  Pt  Pt22  1  0.59891912  0.53136002  0.61070139  1
  Pt  Pt23  1  0.59949138  0.86901490  0.60411880  1
  Pt  Pt24  1  0.93291364  0.19919327  0.60503415  1
  Pt  Pt25  1  0.93597401  0.53287374  0.60410567  1
  Pt  Pt26  1  0.93596633  0.86889324  0.60413129  1
  O  O27  1  0.59047458  0.51480445  0.69343126  1
  H  H28  1  0.58588848  0.50503644  0.82777167  1
