# generated using pymatgen
data_H(Ir3O5)4
_symmetry_space_group_name_H-M   'P 1'
_cell_length_a   6.34574200
_cell_length_b   6.38387200
_cell_length_c   25.53556900
_cell_angle_alpha   90.00000000
_cell_angle_beta   90.00000000
_cell_angle_gamma   90.00000000
_symmetry_Int_Tables_number   1
_chemical_formula_structural   H(Ir3O5)4
_chemical_formula_sum   'Ir12 H1 O20'
_cell_volume   1034.45623375
_cell_formula_units_Z   1
loop_
 _symmetry_equiv_pos_site_id
 _symmetry_equiv_pos_as_xyz
  1  'x, y, z'
loop_
 _atom_site_type_symbol
 _atom_site_label
 _atom_site_symmetry_multiplicity
 _atom_site_fract_x
 _atom_site_fract_y
 _atom_site_fract_z
 _atom_site_occupancy
  Ir  Ir0  1  0.25000000  0.00000000  0.37500000  1
  Ir  Ir1  1  0.75000000  0.00000000  0.37500000  1
  Ir  Ir2  1  0.00000000  0.50000000  0.37500100  1
  Ir  Ir3  1  0.50000000  0.50000000  0.37500100  1
  Ir  Ir4  1  0.24844275  0.49668415  0.50008300  1
  Ir  Ir5  1  0.75286998  0.49668512  0.50007893  1
  Ir  Ir6  1  0.00164314  0.99660782  0.49990061  1
  Ir  Ir7  1  0.50173589  0.99650226  0.50041944  1
  Ir  Ir8  1  0.25109753  0.98717803  0.62394392  1
  Ir  Ir9  1  0.75840315  0.98716632  0.62432364  1
  Ir  Ir10  1  0.00545214  0.48716013  0.63262586  1
  Ir  Ir11  1  0.50550597  0.48708377  0.62498508  1
  O  O12  1  0.25000000  0.69160400  0.37500200  1
  O  O13  1  0.75000000  0.69160400  0.37500200  1
  O  O14  1  0.25000000  0.30839600  0.37500200  1
  O  O15  1  0.75000000  0.30839600  0.37500200  1
  O  O16  1  0.00000000  0.50000000  0.45209900  1
  O  O17  1  0.50000000  0.50000000  0.45209900  1
  O  O18  1  0.25144533  0.18845482  0.50069040  1
  O  O19  1  0.75145708  0.18846646  0.50065975  1
  O  O20  1  0.00000000  0.00000000  0.42290400  1
  O  O21  1  0.50000000  0.00000000  0.42290400  1
  O  O22  1  0.25119656  0.80499850  0.50012236  1
  O  O23  1  0.75170643  0.80498744  0.50009338  1
  O  O24  1  0.00390064  0.99100987  0.57839419  1
  O  O25  1  0.50459493  0.99140345  0.57876267  1
  O  O26  1  0.25588339  0.68238708  0.63097313  1
  O  O27  1  0.75435368  0.68215756  0.63142292  1
  O  O28  1  0.00107891  0.49518445  0.54806442  1
  O  O29  1  0.50135511  0.49828198  0.54823599  1
  O  O30  1  0.25617930  0.29248455  0.63065249  1
  O  O31  1  0.75404957  0.29268107  0.63113927  1
  H  H32  1  0.00887756  0.48363512  0.69447435  1
