# generated using pymatgen
data_Cu27HCO
_symmetry_space_group_name_H-M   'P 1'
_cell_length_a   7.56931204
_cell_length_b   6.17958932
_cell_length_c   26.20755800
_cell_angle_alpha   89.93253853
_cell_angle_beta   90.00615399
_cell_angle_gamma   90.00637696
_symmetry_Int_Tables_number   1
_chemical_formula_structural   Cu27HCO
_chemical_formula_sum   'Cu27 H1 C1 O1'
_cell_volume   1225.86394768
_cell_formula_units_Z   1
loop_
 _symmetry_equiv_pos_site_id
 _symmetry_equiv_pos_as_xyz
  1  'x, y, z'
loop_
 _atom_site_type_symbol
 _atom_site_label
 _atom_site_symmetry_multiplicity
 _atom_site_fract_x
 _atom_site_fract_y
 _atom_site_fract_z
 _atom_site_occupancy
  Cu  Cu0  1  0.00000100  0.70833300  0.43055600  1
  Cu  Cu1  1  0.33333400  0.70833300  0.43055600  1
  Cu  Cu2  1  0.66666700  0.70833300  0.43055600  1
  Cu  Cu3  1  0.00000100  0.04166600  0.48611100  1
  Cu  Cu4  1  0.33333400  0.04166600  0.48611100  1
  Cu  Cu5  1  0.66666700  0.04166600  0.48611100  1
  Cu  Cu6  1  0.00595297  0.37319756  0.54389996  1
  Cu  Cu7  1  0.33590769  0.37307765  0.54364250  1
  Cu  Cu8  1  0.66904019  0.37268828  0.54296221  1
  Cu  Cu9  1  0.16666700  0.37500000  0.45833300  1
  Cu  Cu10  1  0.50000000  0.37500000  0.45833300  1
  Cu  Cu11  1  0.83333400  0.37500000  0.45833300  1
  Cu  Cu12  1  0.16827184  0.70841225  0.51444363  1
  Cu  Cu13  1  0.50125034  0.70768300  0.51419791  1
  Cu  Cu14  1  0.83519108  0.70792934  0.51404224  1
  Cu  Cu15  1  0.00277082  0.70458747  0.59999665  1
  Cu  Cu16  1  0.33713680  0.70587094  0.60045104  1
  Cu  Cu17  1  0.67119531  0.70327621  0.59947542  1
  Cu  Cu18  1  0.00375864  0.04186517  0.65044796  1
  Cu  Cu19  1  0.34136582  0.03785699  0.65242420  1
  Cu  Cu20  1  0.67534561  0.03899210  0.64994047  1
  Cu  Cu21  1  0.17197538  0.03558809  0.56986217  1
  Cu  Cu22  1  0.50271122  0.03412281  0.56925124  1
  Cu  Cu23  1  0.83769636  0.03643634  0.56910723  1
  Cu  Cu24  1  0.16706514  0.38530440  0.63245667  1
  Cu  Cu25  1  0.51113266  0.37854616  0.62874159  1
  Cu  Cu26  1  0.83887639  0.37432374  0.62678101  1
  C  C27  1  0.34286247  0.32212859  0.68313395  1
  H  H28  1  0.47038777  0.33955615  0.74719975  1
  O  O29  1  0.35759816  0.38946162  0.73204306  1
