# generated using pymatgen
data_Rh27CO
_symmetry_space_group_name_H-M   'P 1'
_cell_length_a   8.03672266
_cell_length_b   8.03669826
_cell_length_c   21.92791400
_cell_angle_alpha   86.49772645
_cell_angle_beta   86.49795137
_cell_angle_gamma   59.99991575
_symmetry_Int_Tables_number   1
_chemical_formula_structural   Rh27CO
_chemical_formula_sum   'Rh27 C1 O1'
_cell_volume   1223.49202859
_cell_formula_units_Z   1
loop_
 _symmetry_equiv_pos_site_id
 _symmetry_equiv_pos_as_xyz
  1  'x, y, z'
loop_
 _atom_site_type_symbol
 _atom_site_label
 _atom_site_symmetry_multiplicity
 _atom_site_fract_x
 _atom_site_fract_y
 _atom_site_fract_z
 _atom_site_occupancy
  Rh  Rh0  1  0.06666700  0.06666700  0.40000000  1
  Rh  Rh1  1  0.06666700  0.40000000  0.40000000  1
  Rh  Rh2  1  0.06666700  0.73333300  0.40000000  1
  Rh  Rh3  1  0.40000000  0.06666700  0.40000000  1
  Rh  Rh4  1  0.40000000  0.40000000  0.40000000  1
  Rh  Rh5  1  0.40000000  0.73333300  0.40000000  1
  Rh  Rh6  1  0.73333300  0.06666700  0.40000000  1
  Rh  Rh7  1  0.73333300  0.40000000  0.40000000  1
  Rh  Rh8  1  0.73333300  0.73333300  0.40000000  1
  Rh  Rh9  1  0.16686918  0.16681619  0.49840307  1
  Rh  Rh10  1  0.16687786  0.50030585  0.49840167  1
  Rh  Rh11  1  0.16754317  0.83321550  0.49844178  1
  Rh  Rh12  1  0.50032799  0.16684066  0.49839908  1
  Rh  Rh13  1  0.50179775  0.50179023  0.49893444  1
  Rh  Rh14  1  0.50178473  0.83025642  0.49892208  1
  Rh  Rh15  1  0.83322858  0.16752684  0.49843703  1
  Rh  Rh16  1  0.83033778  0.50174641  0.49888509  1
  Rh  Rh17  1  0.83322969  0.83322137  0.49843443  1
  Rh  Rh18  1  0.26713048  0.26708788  0.59672375  1
  Rh  Rh19  1  0.26436132  0.60066951  0.59675712  1
  Rh  Rh20  1  0.26434361  0.93627401  0.59675344  1
  Rh  Rh21  1  0.60067309  0.26429876  0.59674821  1
  Rh  Rh22  1  0.59952036  0.59935653  0.60610863  1
  Rh  Rh23  1  0.60067298  0.93636149  0.59674228  1
  Rh  Rh24  1  0.93640007  0.26423607  0.59673582  1
  Rh  Rh25  1  0.93642635  0.60065686  0.59673357  1
  Rh  Rh26  1  0.93378399  0.93376878  0.59664070  1
  O  O27  1  0.59034143  0.58255099  0.74256721  1
  C  C28  1  0.59358794  0.58922911  0.68923939  1
