# generated using pymatgen
data_Rh27O
_symmetry_space_group_name_H-M   'P 1'
_cell_length_a   8.03672266
_cell_length_b   8.03669826
_cell_length_c   21.92791400
_cell_angle_alpha   86.49772645
_cell_angle_beta   86.49795137
_cell_angle_gamma   59.99991575
_symmetry_Int_Tables_number   1
_chemical_formula_structural   Rh27O
_chemical_formula_sum   'Rh27 O1'
_cell_volume   1223.49202859
_cell_formula_units_Z   1
loop_
 _symmetry_equiv_pos_site_id
 _symmetry_equiv_pos_as_xyz
  1  'x, y, z'
loop_
 _atom_site_type_symbol
 _atom_site_label
 _atom_site_symmetry_multiplicity
 _atom_site_fract_x
 _atom_site_fract_y
 _atom_site_fract_z
 _atom_site_occupancy
  Rh  Rh0  1  0.06666700  0.06666700  0.40000000  1
  Rh  Rh1  1  0.06666700  0.40000000  0.40000000  1
  Rh  Rh2  1  0.06666700  0.73333300  0.40000000  1
  Rh  Rh3  1  0.40000000  0.06666700  0.40000000  1
  Rh  Rh4  1  0.40000000  0.40000000  0.40000000  1
  Rh  Rh5  1  0.40000000  0.73333300  0.40000000  1
  Rh  Rh6  1  0.73333300  0.06666700  0.40000000  1
  Rh  Rh7  1  0.73333300  0.40000000  0.40000000  1
  Rh  Rh8  1  0.73333300  0.73333300  0.40000000  1
  Rh  Rh9  1  0.16682104  0.16681844  0.49774670  1
  Rh  Rh10  1  0.16693155  0.50078751  0.49770150  1
  Rh  Rh11  1  0.16763860  0.83331475  0.49840194  1
  Rh  Rh12  1  0.50079014  0.16692896  0.49770153  1
  Rh  Rh13  1  0.50122186  0.50121924  0.50015272  1
  Rh  Rh14  1  0.50116622  0.83126721  0.50011090  1
  Rh  Rh15  1  0.83331736  0.16763600  0.49840197  1
  Rh  Rh16  1  0.83126963  0.50116369  0.50011090  1
  Rh  Rh17  1  0.83324582  0.83324320  0.49841723  1
  Rh  Rh18  1  0.26732143  0.26731589  0.59642633  1
  Rh  Rh19  1  0.26325798  0.60102099  0.59708521  1
  Rh  Rh20  1  0.26298131  0.93758787  0.59710577  1
  Rh  Rh21  1  0.60102623  0.26325280  0.59708521  1
  Rh  Rh22  1  0.60023616  0.60023100  0.59984254  1
  Rh  Rh23  1  0.60069749  0.93781037  0.59709004  1
  Rh  Rh24  1  0.93759321  0.26297628  0.59710578  1
  Rh  Rh25  1  0.93781576  0.60069203  0.59709004  1
  Rh  Rh26  1  0.93375649  0.93375140  0.59730078  1
  O  O27  1  0.59548991  0.59548324  0.68349656  1
