# generated using pymatgen
data_HRh27O2
_symmetry_space_group_name_H-M   'P 1'
_cell_length_a   8.03672266
_cell_length_b   8.03669826
_cell_length_c   21.92791400
_cell_angle_alpha   86.49772645
_cell_angle_beta   86.49795137
_cell_angle_gamma   59.99991575
_symmetry_Int_Tables_number   1
_chemical_formula_structural   HRh27O2
_chemical_formula_sum   'H1 Rh27 O2'
_cell_volume   1223.49202859
_cell_formula_units_Z   1
loop_
 _symmetry_equiv_pos_site_id
 _symmetry_equiv_pos_as_xyz
  1  'x, y, z'
loop_
 _atom_site_type_symbol
 _atom_site_label
 _atom_site_symmetry_multiplicity
 _atom_site_fract_x
 _atom_site_fract_y
 _atom_site_fract_z
 _atom_site_occupancy
  Rh  Rh0  1  0.06666700  0.06666700  0.40000000  1
  Rh  Rh1  1  0.06666700  0.40000000  0.40000000  1
  Rh  Rh2  1  0.06666700  0.73333300  0.40000000  1
  Rh  Rh3  1  0.40000000  0.06666700  0.40000000  1
  Rh  Rh4  1  0.40000000  0.40000000  0.40000000  1
  Rh  Rh5  1  0.40000000  0.73333300  0.40000000  1
  Rh  Rh6  1  0.73333300  0.06666700  0.40000000  1
  Rh  Rh7  1  0.73333300  0.40000000  0.40000000  1
  Rh  Rh8  1  0.73333300  0.73333300  0.40000000  1
  Rh  Rh9  1  0.16815310  0.16564410  0.49823601  1
  Rh  Rh10  1  0.16809296  0.49975797  0.49817600  1
  Rh  Rh11  1  0.16847754  0.83275612  0.49858264  1
  Rh  Rh12  1  0.50099312  0.16666893  0.49783183  1
  Rh  Rh13  1  0.50263468  0.50108641  0.49984192  1
  Rh  Rh14  1  0.50289215  0.83010089  0.49936511  1
  Rh  Rh15  1  0.83414280  0.16699898  0.49839019  1
  Rh  Rh16  1  0.83290458  0.50086790  0.49872702  1
  Rh  Rh17  1  0.83428378  0.83263557  0.49831395  1
  Rh  Rh18  1  0.26861955  0.26587723  0.59680157  1
  Rh  Rh19  1  0.26623678  0.59984310  0.59686687  1
  Rh  Rh20  1  0.26752367  0.93373535  0.59719988  1
  Rh  Rh21  1  0.60226653  0.26334208  0.59669201  1
  Rh  Rh22  1  0.60157766  0.59734110  0.60147031  1
  Rh  Rh23  1  0.60238844  0.93463725  0.59653028  1
  Rh  Rh24  1  0.93802022  0.26322730  0.59646014  1
  Rh  Rh25  1  0.93732623  0.59973007  0.59684858  1
  Rh  Rh26  1  0.93468531  0.93303681  0.59685331  1
  O  O27  1  0.64426596  0.55671486  0.69044590  1
  O  O28  1  0.48083524  0.69629285  0.72816773  1
  H  H29  1  0.52130507  0.79113646  0.73481951  1
