# generated using pymatgen
data_HRh27
_symmetry_space_group_name_H-M   'P 1'
_cell_length_a   8.03672266
_cell_length_b   8.03669826
_cell_length_c   21.92791400
_cell_angle_alpha   86.49772645
_cell_angle_beta   86.49795137
_cell_angle_gamma   59.99991575
_symmetry_Int_Tables_number   1
_chemical_formula_structural   HRh27
_chemical_formula_sum   'H1 Rh27'
_cell_volume   1223.49202859
_cell_formula_units_Z   1
loop_
 _symmetry_equiv_pos_site_id
 _symmetry_equiv_pos_as_xyz
  1  'x, y, z'
loop_
 _atom_site_type_symbol
 _atom_site_label
 _atom_site_symmetry_multiplicity
 _atom_site_fract_x
 _atom_site_fract_y
 _atom_site_fract_z
 _atom_site_occupancy
  Rh  Rh0  1  0.06666700  0.06666700  0.40000000  1
  Rh  Rh1  1  0.06666700  0.40000000  0.40000000  1
  Rh  Rh2  1  0.06666700  0.73333300  0.40000000  1
  Rh  Rh3  1  0.40000000  0.06666700  0.40000000  1
  Rh  Rh4  1  0.40000000  0.40000000  0.40000000  1
  Rh  Rh5  1  0.40000000  0.73333300  0.40000000  1
  Rh  Rh6  1  0.73333300  0.06666700  0.40000000  1
  Rh  Rh7  1  0.73333300  0.40000000  0.40000000  1
  Rh  Rh8  1  0.73333300  0.73333300  0.40000000  1
  Rh  Rh9  1  0.16685912  0.16685725  0.49877586  1
  Rh  Rh10  1  0.16692342  0.50033231  0.49875250  1
  Rh  Rh11  1  0.16766488  0.83321224  0.49865099  1
  Rh  Rh12  1  0.50033428  0.16692150  0.49875250  1
  Rh  Rh13  1  0.50126719  0.50126524  0.49916751  1
  Rh  Rh14  1  0.50118158  0.83154664  0.49907018  1
  Rh  Rh15  1  0.83321418  0.16766293  0.49865101  1
  Rh  Rh16  1  0.83154849  0.50117965  0.49907021  1
  Rh  Rh17  1  0.83322668  0.83322479  0.49862753  1
  Rh  Rh18  1  0.26716736  0.26716306  0.59746437  1
  Rh  Rh19  1  0.26614144  0.60100028  0.59743252  1
  Rh  Rh20  1  0.26598381  0.93444761  0.59742177  1
  Rh  Rh21  1  0.60100443  0.26613730  0.59743250  1
  Rh  Rh22  1  0.60031956  0.60031549  0.60194816  1
  Rh  Rh23  1  0.60098238  0.93462022  0.59740288  1
  Rh  Rh24  1  0.93445167  0.26597983  0.59742179  1
  Rh  Rh25  1  0.93462424  0.60097821  0.59740290  1
  Rh  Rh26  1  0.93383066  0.93382656  0.59716515  1
  H  H27  1  0.59714338  0.59714210  0.67410422  1
