# generated using pymatgen
data_HPt27
_symmetry_space_group_name_H-M   'P 1'
_cell_length_a   8.30563200
_cell_length_b   8.30548099
_cell_length_c   22.66204900
_cell_angle_alpha   86.50247764
_cell_angle_beta   89.99826160
_cell_angle_gamma   119.99933191
_symmetry_Int_Tables_number   1
_chemical_formula_structural   HPt27
_chemical_formula_sum   'H1 Pt27'
_cell_volume   1350.48407360
_cell_formula_units_Z   1
loop_
 _symmetry_equiv_pos_site_id
 _symmetry_equiv_pos_as_xyz
  1  'x, y, z'
loop_
 _atom_site_type_symbol
 _atom_site_label
 _atom_site_symmetry_multiplicity
 _atom_site_fract_x
 _atom_site_fract_y
 _atom_site_fract_z
 _atom_site_occupancy
  Pt  Pt0  1  0.06666700  0.13333400  0.40000000  1
  Pt  Pt1  1  0.06666700  0.46666700  0.40000000  1
  Pt  Pt2  1  0.06666700  0.80000100  0.40000000  1
  Pt  Pt3  1  0.40000000  0.13333400  0.40000000  1
  Pt  Pt4  1  0.40000000  0.46666700  0.40000000  1
  Pt  Pt5  1  0.40000000  0.80000100  0.40000000  1
  Pt  Pt6  1  0.73333400  0.13333400  0.40000000  1
  Pt  Pt7  1  0.73333400  0.46666700  0.40000000  1
  Pt  Pt8  1  0.73333400  0.80000100  0.40000000  1
  Pt  Pt9  1  0.16668568  0.00004608  0.50207310  1
  Pt  Pt10  1  0.16691085  0.33360158  0.50291955  1
  Pt  Pt11  1  0.16690028  0.66644692  0.50292205  1
  Pt  Pt12  1  0.50002834  0.99962648  0.50291283  1
  Pt  Pt13  1  0.50001512  0.33360114  0.50291929  1
  Pt  Pt14  1  0.49988567  0.66644960  0.50340072  1
  Pt  Pt15  1  0.83292240  0.99962650  0.50291236  1
  Pt  Pt16  1  0.83330309  0.33327967  0.50268237  1
  Pt  Pt17  1  0.83287212  0.66644690  0.50292183  1
  Pt  Pt18  1  0.26589612  0.19848458  0.60507766  1
  Pt  Pt19  1  0.26203523  0.53045123  0.60779088  1
  Pt  Pt20  1  0.26589620  0.86719174  0.60506471  1
  Pt  Pt21  1  0.59982562  0.19973547  0.60576024  1
  Pt  Pt22  1  0.60172374  0.53045966  0.60778577  1
  Pt  Pt23  1  0.60180841  0.87029916  0.60773834  1
  Pt  Pt24  1  0.93322057  0.19973540  0.60576128  1
  Pt  Pt25  1  0.93318441  0.53306014  0.60576254  1
  Pt  Pt26  1  0.93461396  0.86719578  0.60506507  1
  H  H27  1  0.48418862  0.63507114  0.64746459  1
