# generated using pymatgen
data_Pt27O
_symmetry_space_group_name_H-M   'P 1'
_cell_length_a   8.30563200
_cell_length_b   8.30548099
_cell_length_c   22.66204900
_cell_angle_alpha   86.50247764
_cell_angle_beta   89.99826160
_cell_angle_gamma   119.99933191
_symmetry_Int_Tables_number   1
_chemical_formula_structural   Pt27O
_chemical_formula_sum   'Pt27 O1'
_cell_volume   1350.48407360
_cell_formula_units_Z   1
loop_
 _symmetry_equiv_pos_site_id
 _symmetry_equiv_pos_as_xyz
  1  'x, y, z'
loop_
 _atom_site_type_symbol
 _atom_site_label
 _atom_site_symmetry_multiplicity
 _atom_site_fract_x
 _atom_site_fract_y
 _atom_site_fract_z
 _atom_site_occupancy
  Pt  Pt0  1  0.06666700  0.13333400  0.40000000  1
  Pt  Pt1  1  0.06666700  0.46666700  0.40000000  1
  Pt  Pt2  1  0.06666700  0.80000100  0.40000000  1
  Pt  Pt3  1  0.40000000  0.13333400  0.40000000  1
  Pt  Pt4  1  0.40000000  0.46666700  0.40000000  1
  Pt  Pt5  1  0.40000000  0.80000100  0.40000000  1
  Pt  Pt6  1  0.73333400  0.13333400  0.40000000  1
  Pt  Pt7  1  0.73333400  0.46666700  0.40000000  1
  Pt  Pt8  1  0.73333400  0.80000100  0.40000000  1
  Pt  Pt9  1  0.16735298  0.99981488  0.50087180  1
  Pt  Pt10  1  0.16673836  0.33342713  0.50148310  1
  Pt  Pt11  1  0.16726810  0.66787343  0.50088380  1
  Pt  Pt12  1  0.49911952  0.99981390  0.50087170  1
  Pt  Pt13  1  0.50095154  0.33524389  0.50362833  1
  Pt  Pt14  1  0.50096470  0.66503943  0.50354425  1
  Pt  Pt15  1  0.83333740  0.00001598  0.50147516  1
  Pt  Pt16  1  0.83334921  0.33342499  0.50148318  1
  Pt  Pt17  1  0.83072920  0.66503529  0.50354371  1
  Pt  Pt18  1  0.26326507  0.19647908  0.60312430  1
  Pt  Pt19  1  0.26318947  0.53366104  0.60308132  1
  Pt  Pt20  1  0.26663475  0.86661023  0.60397614  1
  Pt  Pt21  1  0.59986344  0.19648022  0.60312310  1
  Pt  Pt22  1  0.59924017  0.53183204  0.60853070  1
  Pt  Pt23  1  0.59975838  0.87034986  0.60301526  1
  Pt  Pt24  1  0.93327068  0.19988916  0.60411941  1
  Pt  Pt25  1  0.93712864  0.53366968  0.60307928  1
  Pt  Pt26  1  0.93725035  0.87034748  0.60301430  1
  O  O27  1  0.59416327  0.52167932  0.68853275  1
