# generated using pymatgen
data_HRh27N2
_symmetry_space_group_name_H-M   'P 1'
_cell_length_a   8.03672266
_cell_length_b   8.03669826
_cell_length_c   21.92791400
_cell_angle_alpha   86.49772645
_cell_angle_beta   86.49795137
_cell_angle_gamma   59.99991575
_symmetry_Int_Tables_number   1
_chemical_formula_structural   HRh27N2
_chemical_formula_sum   'H1 Rh27 N2'
_cell_volume   1223.49202859
_cell_formula_units_Z   1
loop_
 _symmetry_equiv_pos_site_id
 _symmetry_equiv_pos_as_xyz
  1  'x, y, z'
loop_
 _atom_site_type_symbol
 _atom_site_label
 _atom_site_symmetry_multiplicity
 _atom_site_fract_x
 _atom_site_fract_y
 _atom_site_fract_z
 _atom_site_occupancy
  Rh  Rh0  1  0.06666700  0.06666700  0.40000000  1
  Rh  Rh1  1  0.06666700  0.40000000  0.40000000  1
  Rh  Rh2  1  0.06666700  0.73333300  0.40000000  1
  Rh  Rh3  1  0.40000000  0.06666700  0.40000000  1
  Rh  Rh4  1  0.40000000  0.40000000  0.40000000  1
  Rh  Rh5  1  0.40000000  0.73333300  0.40000000  1
  Rh  Rh6  1  0.73333300  0.06666700  0.40000000  1
  Rh  Rh7  1  0.73333300  0.40000000  0.40000000  1
  Rh  Rh8  1  0.73333300  0.73333300  0.40000000  1
  Rh  Rh9  1  0.16688011  0.16725910  0.49812020  1
  Rh  Rh10  1  0.16717639  0.50047320  0.49815105  1
  Rh  Rh11  1  0.16756840  0.83342585  0.49842394  1
  Rh  Rh12  1  0.50027761  0.16737848  0.49815763  1
  Rh  Rh13  1  0.50214412  0.50252728  0.50040471  1
  Rh  Rh14  1  0.50184717  0.83069265  0.49929181  1
  Rh  Rh15  1  0.83331659  0.16773673  0.49849601  1
  Rh  Rh16  1  0.82928454  0.50260216  0.50021680  1
  Rh  Rh17  1  0.83343313  0.83338316  0.49840396  1
  Rh  Rh18  1  0.26735748  0.26682163  0.59696209  1
  Rh  Rh19  1  0.26309650  0.60127441  0.59723835  1
  Rh  Rh20  1  0.26397674  0.93686524  0.59699562  1
  Rh  Rh21  1  0.60153730  0.26183512  0.59715080  1
  Rh  Rh22  1  0.59951795  0.59633935  0.60841218  1
  Rh  Rh23  1  0.60098001  0.93697884  0.59696143  1
  Rh  Rh24  1  0.93839871  0.26209010  0.59706785  1
  Rh  Rh25  1  0.93799658  0.60093547  0.59713655  1
  Rh  Rh26  1  0.93401880  0.93365158  0.59730007  1
  N  N27  1  0.59735097  0.59435371  0.69014183  1
  N  N28  1  0.57894983  0.59136937  0.74437648  1
  H  H29  1  0.67991366  0.59207004  0.77218601  1
