# generated using pymatgen
data_HRh27
_symmetry_space_group_name_H-M   'P 1'
_cell_length_a   8.03672266
_cell_length_b   8.03669826
_cell_length_c   21.92791400
_cell_angle_alpha   86.49772645
_cell_angle_beta   86.49795137
_cell_angle_gamma   59.99991575
_symmetry_Int_Tables_number   1
_chemical_formula_structural   HRh27
_chemical_formula_sum   'H1 Rh27'
_cell_volume   1223.49202859
_cell_formula_units_Z   1
loop_
 _symmetry_equiv_pos_site_id
 _symmetry_equiv_pos_as_xyz
  1  'x, y, z'
loop_
 _atom_site_type_symbol
 _atom_site_label
 _atom_site_symmetry_multiplicity
 _atom_site_fract_x
 _atom_site_fract_y
 _atom_site_fract_z
 _atom_site_occupancy
  Rh  Rh0  1  0.06666700  0.06666700  0.40000000  1
  Rh  Rh1  1  0.06666700  0.40000000  0.40000000  1
  Rh  Rh2  1  0.06666700  0.73333300  0.40000000  1
  Rh  Rh3  1  0.40000000  0.06666700  0.40000000  1
  Rh  Rh4  1  0.40000000  0.40000000  0.40000000  1
  Rh  Rh5  1  0.40000000  0.73333300  0.40000000  1
  Rh  Rh6  1  0.73333300  0.06666700  0.40000000  1
  Rh  Rh7  1  0.73333300  0.40000000  0.40000000  1
  Rh  Rh8  1  0.73333300  0.73333300  0.40000000  1
  Rh  Rh9  1  0.16692240  0.16692045  0.49860848  1
  Rh  Rh10  1  0.16709284  0.50040842  0.49870134  1
  Rh  Rh11  1  0.16706763  0.83323677  0.49870644  1
  Rh  Rh12  1  0.50041024  0.16709097  0.49870138  1
  Rh  Rh13  1  0.50026863  0.50026682  0.49863576  1
  Rh  Rh14  1  0.50039065  0.83328046  0.49868352  1
  Rh  Rh15  1  0.83323860  0.16706577  0.49870646  1
  Rh  Rh16  1  0.83328227  0.50038880  0.49868352  1
  Rh  Rh17  1  0.83359494  0.83359314  0.49853930  1
  Rh  Rh18  1  0.26629622  0.26629228  0.59705235  1
  Rh  Rh19  1  0.26226274  0.60268619  0.59865964  1
  Rh  Rh20  1  0.26625982  0.93562849  0.59704149  1
  Rh  Rh21  1  0.60269010  0.26225895  0.59865965  1
  Rh  Rh22  1  0.60288098  0.60287691  0.59863126  1
  Rh  Rh23  1  0.60026608  0.93398304  0.59721898  1
  Rh  Rh24  1  0.93563248  0.26625582  0.59704152  1
  Rh  Rh25  1  0.93398694  0.60026219  0.59721898  1
  Rh  Rh26  1  0.93391008  0.93390623  0.59722703  1
  H  H27  1  0.48504103  0.48503759  0.64131905  1
