# generated using pymatgen
data_H3Pt27N
_symmetry_space_group_name_H-M   'P 1'
_cell_length_a   8.30563200
_cell_length_b   8.30548099
_cell_length_c   22.66204900
_cell_angle_alpha   86.50247764
_cell_angle_beta   89.99826160
_cell_angle_gamma   119.99933191
_symmetry_Int_Tables_number   1
_chemical_formula_structural   H3Pt27N
_chemical_formula_sum   'H3 Pt27 N1'
_cell_volume   1350.48407360
_cell_formula_units_Z   1
loop_
 _symmetry_equiv_pos_site_id
 _symmetry_equiv_pos_as_xyz
  1  'x, y, z'
loop_
 _atom_site_type_symbol
 _atom_site_label
 _atom_site_symmetry_multiplicity
 _atom_site_fract_x
 _atom_site_fract_y
 _atom_site_fract_z
 _atom_site_occupancy
  Pt  Pt0  1  0.06666700  0.13333400  0.40000000  1
  Pt  Pt1  1  0.06666700  0.46666700  0.40000000  1
  Pt  Pt2  1  0.06666700  0.80000100  0.40000000  1
  Pt  Pt3  1  0.40000000  0.13333400  0.40000000  1
  Pt  Pt4  1  0.40000000  0.46666700  0.40000000  1
  Pt  Pt5  1  0.40000000  0.80000100  0.40000000  1
  Pt  Pt6  1  0.73333400  0.13333400  0.40000000  1
  Pt  Pt7  1  0.73333400  0.46666700  0.40000000  1
  Pt  Pt8  1  0.73333400  0.80000100  0.40000000  1
  Pt  Pt9  1  0.16715329  0.00008731  0.50174990  1
  Pt  Pt10  1  0.16661422  0.33353064  0.50216264  1
  Pt  Pt11  1  0.16698012  0.66761745  0.50175543  1
  Pt  Pt12  1  0.49934166  0.00019954  0.50174714  1
  Pt  Pt13  1  0.50027388  0.33407315  0.50420917  1
  Pt  Pt14  1  0.50006256  0.66617099  0.50396641  1
  Pt  Pt15  1  0.83342745  0.00027468  0.50211734  1
  Pt  Pt16  1  0.83322816  0.33342311  0.50218342  1
  Pt  Pt17  1  0.83240058  0.66613900  0.50404275  1
  Pt  Pt18  1  0.26437093  0.19820206  0.60429291  1
  Pt  Pt19  1  0.26447145  0.53360601  0.60423348  1
  Pt  Pt20  1  0.26651122  0.86679381  0.60523182  1
  Pt  Pt21  1  0.59997000  0.19834782  0.60448394  1
  Pt  Pt22  1  0.59934148  0.53250922  0.61040016  1
  Pt  Pt23  1  0.60014701  0.86963186  0.60396544  1
  Pt  Pt24  1  0.93317820  0.20015785  0.60554296  1
  Pt  Pt25  1  0.93545034  0.53354303  0.60420298  1
  Pt  Pt26  1  0.93552062  0.86930644  0.60418137  1
  N  N27  1  0.59068567  0.51836326  0.70226964  1
  H  H28  1  0.71903927  0.55247515  0.71833050  1
  H  H29  1  0.55333450  0.61000176  0.71722010  1
  H  H30  1  0.49549347  0.38626395  0.71945084  1
