# generated using pymatgen
data_Rh27O
_symmetry_space_group_name_H-M   'P 1'
_cell_length_a   8.03672266
_cell_length_b   8.03669826
_cell_length_c   21.92791400
_cell_angle_alpha   86.49772645
_cell_angle_beta   86.49795137
_cell_angle_gamma   59.99991575
_symmetry_Int_Tables_number   1
_chemical_formula_structural   Rh27O
_chemical_formula_sum   'Rh27 O1'
_cell_volume   1223.49202859
_cell_formula_units_Z   1
loop_
 _symmetry_equiv_pos_site_id
 _symmetry_equiv_pos_as_xyz
  1  'x, y, z'
loop_
 _atom_site_type_symbol
 _atom_site_label
 _atom_site_symmetry_multiplicity
 _atom_site_fract_x
 _atom_site_fract_y
 _atom_site_fract_z
 _atom_site_occupancy
  Rh  Rh0  1  0.06666700  0.06666700  0.40000000  1
  Rh  Rh1  1  0.06666700  0.40000000  0.40000000  1
  Rh  Rh2  1  0.06666700  0.73333300  0.40000000  1
  Rh  Rh3  1  0.40000000  0.06666700  0.40000000  1
  Rh  Rh4  1  0.40000000  0.40000000  0.40000000  1
  Rh  Rh5  1  0.40000000  0.73333300  0.40000000  1
  Rh  Rh6  1  0.73333300  0.06666700  0.40000000  1
  Rh  Rh7  1  0.73333300  0.40000000  0.40000000  1
  Rh  Rh8  1  0.73333300  0.73333300  0.40000000  1
  Rh  Rh9  1  0.16692422  0.16692182  0.49779934  1
  Rh  Rh10  1  0.16711822  0.50073344  0.49771138  1
  Rh  Rh11  1  0.16777265  0.83335388  0.49836707  1
  Rh  Rh12  1  0.50073604  0.16711561  0.49771144  1
  Rh  Rh13  1  0.50138661  0.50138414  0.50021152  1
  Rh  Rh14  1  0.50130599  0.83109006  0.50014992  1
  Rh  Rh15  1  0.83335642  0.16777007  0.49836708  1
  Rh  Rh16  1  0.83109239  0.50130354  0.50014996  1
  Rh  Rh17  1  0.83323348  0.83323105  0.49838471  1
  Rh  Rh18  1  0.26746970  0.26746447  0.59656176  1
  Rh  Rh19  1  0.26365378  0.60126435  0.59709810  1
  Rh  Rh20  1  0.26312223  0.93752816  0.59712409  1
  Rh  Rh21  1  0.60126948  0.26364879  0.59709810  1
  Rh  Rh22  1  0.60027010  0.60026512  0.60071782  1
  Rh  Rh23  1  0.60068919  0.93790357  0.59710427  1
  Rh  Rh24  1  0.93753308  0.26311746  0.59712409  1
  Rh  Rh25  1  0.93790862  0.60068399  0.59710425  1
  Rh  Rh26  1  0.93379642  0.93379136  0.59728895  1
  O  O27  1  0.59950402  0.59950284  0.68478764  1
