# generated using pymatgen
data_Cu27HCO
_symmetry_space_group_name_H-M   'P 1'
_cell_length_a   7.56931204
_cell_length_b   6.17958932
_cell_length_c   26.20755800
_cell_angle_alpha   89.93253853
_cell_angle_beta   90.00615399
_cell_angle_gamma   90.00637696
_symmetry_Int_Tables_number   1
_chemical_formula_structural   Cu27HCO
_chemical_formula_sum   'Cu27 H1 C1 O1'
_cell_volume   1225.86394768
_cell_formula_units_Z   1
loop_
 _symmetry_equiv_pos_site_id
 _symmetry_equiv_pos_as_xyz
  1  'x, y, z'
loop_
 _atom_site_type_symbol
 _atom_site_label
 _atom_site_symmetry_multiplicity
 _atom_site_fract_x
 _atom_site_fract_y
 _atom_site_fract_z
 _atom_site_occupancy
  Cu  Cu0  1  0.00000100  0.70833300  0.43055600  1
  Cu  Cu1  1  0.33333400  0.70833300  0.43055600  1
  Cu  Cu2  1  0.66666700  0.70833300  0.43055600  1
  Cu  Cu3  1  0.00000100  0.04166600  0.48611100  1
  Cu  Cu4  1  0.33333400  0.04166600  0.48611100  1
  Cu  Cu5  1  0.66666700  0.04166600  0.48611100  1
  Cu  Cu6  1  0.00493498  0.37011848  0.54343465  1
  Cu  Cu7  1  0.33609324  0.37058302  0.54304110  1
  Cu  Cu8  1  0.66909254  0.36990218  0.54283363  1
  Cu  Cu9  1  0.16666700  0.37500000  0.45833300  1
  Cu  Cu10  1  0.50000000  0.37500000  0.45833300  1
  Cu  Cu11  1  0.83333400  0.37500000  0.45833300  1
  Cu  Cu12  1  0.16821883  0.70700585  0.51335410  1
  Cu  Cu13  1  0.50193522  0.70654113  0.51315524  1
  Cu  Cu14  1  0.83528904  0.70748113  0.51323341  1
  Cu  Cu15  1  0.00297077  0.69966404  0.59900215  1
  Cu  Cu16  1  0.33749732  0.70202378  0.59918067  1
  Cu  Cu17  1  0.67158694  0.69845901  0.59857142  1
  Cu  Cu18  1  0.00506586  0.03429706  0.65099811  1
  Cu  Cu19  1  0.34194441  0.03227190  0.65299680  1
  Cu  Cu20  1  0.67457815  0.03212592  0.65042165  1
  Cu  Cu21  1  0.17184994  0.03213731  0.57013117  1
  Cu  Cu22  1  0.50303009  0.03062142  0.56953362  1
  Cu  Cu23  1  0.83787190  0.03323382  0.56980030  1
  Cu  Cu24  1  0.16926186  0.37938741  0.63099052  1
  Cu  Cu25  1  0.51001211  0.37434646  0.62848795  1
  Cu  Cu26  1  0.83922005  0.36976754  0.62641772  1
  C  C27  1  0.34160311  0.31672608  0.68347837  1
  H  H28  1  0.44154794  0.32793769  0.75162093  1
  O  O29  1  0.34994344  0.39710738  0.72951107  1
