# generated using pymatgen
data_HRh27CO
_symmetry_space_group_name_H-M   'P 1'
_cell_length_a   8.03672266
_cell_length_b   8.03669826
_cell_length_c   21.92791400
_cell_angle_alpha   86.49772645
_cell_angle_beta   86.49795137
_cell_angle_gamma   59.99991575
_symmetry_Int_Tables_number   1
_chemical_formula_structural   HRh27CO
_chemical_formula_sum   'H1 Rh27 C1 O1'
_cell_volume   1223.49202859
_cell_formula_units_Z   1
loop_
 _symmetry_equiv_pos_site_id
 _symmetry_equiv_pos_as_xyz
  1  'x, y, z'
loop_
 _atom_site_type_symbol
 _atom_site_label
 _atom_site_symmetry_multiplicity
 _atom_site_fract_x
 _atom_site_fract_y
 _atom_site_fract_z
 _atom_site_occupancy
  Rh  Rh0  1  0.06666700  0.06666700  0.40000000  1
  Rh  Rh1  1  0.06666700  0.40000000  0.40000000  1
  Rh  Rh2  1  0.06666700  0.73333300  0.40000000  1
  Rh  Rh3  1  0.40000000  0.06666700  0.40000000  1
  Rh  Rh4  1  0.40000000  0.40000000  0.40000000  1
  Rh  Rh5  1  0.40000000  0.73333300  0.40000000  1
  Rh  Rh6  1  0.73333300  0.06666700  0.40000000  1
  Rh  Rh7  1  0.73333300  0.40000000  0.40000000  1
  Rh  Rh8  1  0.73333300  0.73333300  0.40000000  1
  Rh  Rh9  1  0.16625209  0.16754369  0.49842953  1
  Rh  Rh10  1  0.16262194  0.50275239  0.49993487  1
  Rh  Rh11  1  0.16622497  0.83377913  0.49844157  1
  Rh  Rh12  1  0.49863309  0.16884966  0.49791374  1
  Rh  Rh13  1  0.49991147  0.50326060  0.49846374  1
  Rh  Rh14  1  0.50075537  0.83113818  0.49841566  1
  Rh  Rh15  1  0.83213192  0.16784621  0.49806031  1
  Rh  Rh16  1  0.83053385  0.50248666  0.49826773  1
  Rh  Rh17  1  0.83302192  0.83174175  0.49893403  1
  Rh  Rh18  1  0.26660603  0.26730644  0.59657297  1
  Rh  Rh19  1  0.26653823  0.60316948  0.59698013  1
  Rh  Rh20  1  0.26448731  0.93565245  0.59685392  1
  Rh  Rh21  1  0.59858695  0.26830437  0.59644678  1
  Rh  Rh22  1  0.59997668  0.60192001  0.60435580  1
  Rh  Rh23  1  0.59551937  0.94153513  0.59603972  1
  Rh  Rh24  1  0.93450857  0.26385173  0.59594178  1
  Rh  Rh25  1  0.93278554  0.60135593  0.60010861  1
  Rh  Rh26  1  0.93190395  0.93672717  0.59634203  1
  C  C27  1  0.67515327  0.60063546  0.68627022  1
  H  H28  1  0.58384663  0.60252873  0.72676313  1
  O  O29  1  0.82928456  0.59779011  0.69550763  1
