# generated using pymatgen
data_Pt27CO
_symmetry_space_group_name_H-M   'P 1'
_cell_length_a   8.30563200
_cell_length_b   8.30548099
_cell_length_c   22.66204900
_cell_angle_alpha   86.50247764
_cell_angle_beta   89.99826160
_cell_angle_gamma   119.99933191
_symmetry_Int_Tables_number   1
_chemical_formula_structural   Pt27CO
_chemical_formula_sum   'Pt27 C1 O1'
_cell_volume   1350.48407360
_cell_formula_units_Z   1
loop_
 _symmetry_equiv_pos_site_id
 _symmetry_equiv_pos_as_xyz
  1  'x, y, z'
loop_
 _atom_site_type_symbol
 _atom_site_label
 _atom_site_symmetry_multiplicity
 _atom_site_fract_x
 _atom_site_fract_y
 _atom_site_fract_z
 _atom_site_occupancy
  Pt  Pt0  1  0.06666700  0.13333400  0.40000000  1
  Pt  Pt1  1  0.06666700  0.46666700  0.40000000  1
  Pt  Pt2  1  0.06666700  0.80000100  0.40000000  1
  Pt  Pt3  1  0.40000000  0.13333400  0.40000000  1
  Pt  Pt4  1  0.40000000  0.46666700  0.40000000  1
  Pt  Pt5  1  0.40000000  0.80000100  0.40000000  1
  Pt  Pt6  1  0.73333400  0.13333400  0.40000000  1
  Pt  Pt7  1  0.73333400  0.46666700  0.40000000  1
  Pt  Pt8  1  0.73333400  0.80000100  0.40000000  1
  Pt  Pt9  1  0.16691638  0.99926591  0.50168017  1
  Pt  Pt10  1  0.16682244  0.33279989  0.50220226  1
  Pt  Pt11  1  0.16680913  0.66672200  0.50170625  1
  Pt  Pt12  1  0.49945730  0.99936889  0.50170467  1
  Pt  Pt13  1  0.50043788  0.33366374  0.50434333  1
  Pt  Pt14  1  0.50018553  0.66521717  0.50402408  1
  Pt  Pt15  1  0.83321655  0.99919088  0.50219971  1
  Pt  Pt16  1  0.83321532  0.33278144  0.50223251  1
  Pt  Pt17  1  0.83164342  0.66486703  0.50433446  1
  Pt  Pt18  1  0.26300391  0.19475494  0.60453524  1
  Pt  Pt19  1  0.26295963  0.53181703  0.60445888  1
  Pt  Pt20  1  0.26664815  0.86503078  0.60504523  1
  Pt  Pt21  1  0.60004933  0.19486694  0.60461867  1
  Pt  Pt22  1  0.59952376  0.52981732  0.61166459  1
  Pt  Pt23  1  0.60006209  0.86887685  0.60445069  1
  Pt  Pt24  1  0.93324603  0.19831791  0.60537677  1
  Pt  Pt25  1  0.93691726  0.53177077  0.60461615  1
  Pt  Pt26  1  0.93704984  0.86880627  0.60454271  1
  O  O27  1  0.57373858  0.51242818  0.74322708  1
  C  C28  1  0.58380183  0.51927320  0.69163838  1
