# generated using pymatgen
data_HPt27N2
_symmetry_space_group_name_H-M   'P 1'
_cell_length_a   8.30563200
_cell_length_b   8.30548099
_cell_length_c   22.66204900
_cell_angle_alpha   86.50247764
_cell_angle_beta   89.99826160
_cell_angle_gamma   119.99933191
_symmetry_Int_Tables_number   1
_chemical_formula_structural   HPt27N2
_chemical_formula_sum   'H1 Pt27 N2'
_cell_volume   1350.48407360
_cell_formula_units_Z   1
loop_
 _symmetry_equiv_pos_site_id
 _symmetry_equiv_pos_as_xyz
  1  'x, y, z'
loop_
 _atom_site_type_symbol
 _atom_site_label
 _atom_site_symmetry_multiplicity
 _atom_site_fract_x
 _atom_site_fract_y
 _atom_site_fract_z
 _atom_site_occupancy
  Pt  Pt0  1  0.06666700  0.13333400  0.40000000  1
  Pt  Pt1  1  0.06666700  0.46666700  0.40000000  1
  Pt  Pt2  1  0.06666700  0.80000100  0.40000000  1
  Pt  Pt3  1  0.40000000  0.13333400  0.40000000  1
  Pt  Pt4  1  0.40000000  0.46666700  0.40000000  1
  Pt  Pt5  1  0.40000000  0.80000100  0.40000000  1
  Pt  Pt6  1  0.73333400  0.13333400  0.40000000  1
  Pt  Pt7  1  0.73333400  0.46666700  0.40000000  1
  Pt  Pt8  1  0.73333400  0.80000100  0.40000000  1
  Pt  Pt9  1  0.16781280  0.99999054  0.50199132  1
  Pt  Pt10  1  0.16771716  0.33392592  0.50252856  1
  Pt  Pt11  1  0.16874670  0.66752872  0.50184314  1
  Pt  Pt12  1  0.50035046  0.99937419  0.50178100  1
  Pt  Pt13  1  0.50109626  0.33452152  0.50424267  1
  Pt  Pt14  1  0.50174670  0.66536171  0.50501762  1
  Pt  Pt15  1  0.83374840  0.00003280  0.50252348  1
  Pt  Pt16  1  0.83420653  0.33381283  0.50218992  1
  Pt  Pt17  1  0.83246372  0.66584796  0.50438454  1
  Pt  Pt18  1  0.26652994  0.19840915  0.60469992  1
  Pt  Pt19  1  0.26784825  0.53333890  0.60561416  1
  Pt  Pt20  1  0.26844716  0.86659469  0.60487102  1
  Pt  Pt21  1  0.60163177  0.19768329  0.60362271  1
  Pt  Pt22  1  0.60108905  0.53151708  0.61504766  1
  Pt  Pt23  1  0.60145968  0.86695035  0.60566730  1
  Pt  Pt24  1  0.93502192  0.20000739  0.60526452  1
  Pt  Pt25  1  0.93776610  0.53381945  0.60385813  1
  Pt  Pt26  1  0.93684158  0.86883859  0.60462316  1
  N  N27  1  0.61182671  0.48973091  0.70024310  1
  N  N28  1  0.57166645  0.56861480  0.73641017  1
  H  H29  1  0.58996739  0.52647162  0.77927458  1
