# generated using pymatgen
data_Pt27N2
_symmetry_space_group_name_H-M   'P 1'
_cell_length_a   8.30563200
_cell_length_b   8.30548099
_cell_length_c   22.66204900
_cell_angle_alpha   86.50247764
_cell_angle_beta   89.99826160
_cell_angle_gamma   119.99933191
_symmetry_Int_Tables_number   1
_chemical_formula_structural   Pt27N2
_chemical_formula_sum   'Pt27 N2'
_cell_volume   1350.48407360
_cell_formula_units_Z   1
loop_
 _symmetry_equiv_pos_site_id
 _symmetry_equiv_pos_as_xyz
  1  'x, y, z'
loop_
 _atom_site_type_symbol
 _atom_site_label
 _atom_site_symmetry_multiplicity
 _atom_site_fract_x
 _atom_site_fract_y
 _atom_site_fract_z
 _atom_site_occupancy
  Pt  Pt0  1  0.06666700  0.13333400  0.40000000  1
  Pt  Pt1  1  0.06666700  0.46666700  0.40000000  1
  Pt  Pt2  1  0.06666700  0.80000100  0.40000000  1
  Pt  Pt3  1  0.40000000  0.13333400  0.40000000  1
  Pt  Pt4  1  0.40000000  0.46666700  0.40000000  1
  Pt  Pt5  1  0.40000000  0.80000100  0.40000000  1
  Pt  Pt6  1  0.73333400  0.13333400  0.40000000  1
  Pt  Pt7  1  0.73333400  0.46666700  0.40000000  1
  Pt  Pt8  1  0.73333400  0.80000100  0.40000000  1
  Pt  Pt9  1  0.16678630  0.99900775  0.50143823  1
  Pt  Pt10  1  0.16622619  0.33215588  0.50199454  1
  Pt  Pt11  1  0.16649627  0.66634356  0.50141564  1
  Pt  Pt12  1  0.49882902  0.99898552  0.50143986  1
  Pt  Pt13  1  0.49990010  0.33319428  0.50441520  1
  Pt  Pt14  1  0.49955209  0.66470290  0.50395878  1
  Pt  Pt15  1  0.83266256  0.99873918  0.50189382  1
  Pt  Pt16  1  0.83252482  0.33214996  0.50198871  1
  Pt  Pt17  1  0.83180385  0.66473558  0.50392955  1
  Pt  Pt18  1  0.26158141  0.19372329  0.60426736  1
  Pt  Pt19  1  0.26150285  0.53027842  0.60394514  1
  Pt  Pt20  1  0.26509883  0.86367206  0.60463414  1
  Pt  Pt21  1  0.59865255  0.19370330  0.60425554  1
  Pt  Pt22  1  0.59760387  0.52867868  0.61042873  1
  Pt  Pt23  1  0.59885179  0.86785105  0.60377228  1
  Pt  Pt24  1  0.93179362  0.19706443  0.60525070  1
  Pt  Pt25  1  0.93535119  0.53029757  0.60390941  1
  Pt  Pt26  1  0.93554890  0.86788614  0.60374857  1
  N  N27  1  0.59451715  0.52120465  0.69489640  1
  N  N28  1  0.59437441  0.51971330  0.74444536  1
