# generated using pymatgen
data_HPt27CO
_symmetry_space_group_name_H-M   'P 1'
_cell_length_a   8.30563200
_cell_length_b   8.30548099
_cell_length_c   22.66204900
_cell_angle_alpha   86.50247764
_cell_angle_beta   89.99826160
_cell_angle_gamma   119.99933191
_symmetry_Int_Tables_number   1
_chemical_formula_structural   HPt27CO
_chemical_formula_sum   'H1 Pt27 C1 O1'
_cell_volume   1350.48407360
_cell_formula_units_Z   1
loop_
 _symmetry_equiv_pos_site_id
 _symmetry_equiv_pos_as_xyz
  1  'x, y, z'
loop_
 _atom_site_type_symbol
 _atom_site_label
 _atom_site_symmetry_multiplicity
 _atom_site_fract_x
 _atom_site_fract_y
 _atom_site_fract_z
 _atom_site_occupancy
  Pt  Pt0  1  0.06666700  0.13333400  0.40000000  1
  Pt  Pt1  1  0.06666700  0.46666700  0.40000000  1
  Pt  Pt2  1  0.06666700  0.80000100  0.40000000  1
  Pt  Pt3  1  0.40000000  0.13333400  0.40000000  1
  Pt  Pt4  1  0.40000000  0.46666700  0.40000000  1
  Pt  Pt5  1  0.40000000  0.80000100  0.40000000  1
  Pt  Pt6  1  0.73333400  0.13333400  0.40000000  1
  Pt  Pt7  1  0.73333400  0.46666700  0.40000000  1
  Pt  Pt8  1  0.73333400  0.80000100  0.40000000  1
  Pt  Pt9  1  0.17163551  0.00370956  0.50359869  1
  Pt  Pt10  1  0.17302445  0.33775531  0.50330744  1
  Pt  Pt11  1  0.17156994  0.67044896  0.50373321  1
  Pt  Pt12  1  0.50374556  0.00332176  0.50208402  1
  Pt  Pt13  1  0.50417811  0.33752533  0.50322204  1
  Pt  Pt14  1  0.50423814  0.66940866  0.50327659  1
  Pt  Pt15  1  0.83882946  0.00345532  0.50210661  1
  Pt  Pt16  1  0.83884351  0.33825170  0.50211925  1
  Pt  Pt17  1  0.83964398  0.67102958  0.50361770  1
  Pt  Pt18  1  0.27215028  0.20103299  0.61048251  1
  Pt  Pt19  1  0.27121237  0.54072971  0.61051416  1
  Pt  Pt20  1  0.27593977  0.87379364  0.60592284  1
  Pt  Pt21  1  0.61070295  0.20479646  0.60426401  1
  Pt  Pt22  1  0.61518274  0.54253869  0.60905870  1
  Pt  Pt23  1  0.61057130  0.87747982  0.60424011  1
  Pt  Pt24  1  0.93805504  0.20485690  0.60437325  1
  Pt  Pt25  1  0.94211228  0.53952622  0.60614282  1
  Pt  Pt26  1  0.94234725  0.87419656  0.60602988  1
  C  C27  1  0.38680039  0.42165726  0.66163078  1
  H  H28  1  0.49892565  0.44415620  0.73797919  1
  O  O29  1  0.37655264  0.40838019  0.72076456  1
