# generated using pymatgen
data_HPt27CO
_symmetry_space_group_name_H-M   'P 1'
_cell_length_a   8.30563200
_cell_length_b   8.30548099
_cell_length_c   22.66204900
_cell_angle_alpha   86.50247764
_cell_angle_beta   89.99826160
_cell_angle_gamma   119.99933191
_symmetry_Int_Tables_number   1
_chemical_formula_structural   HPt27CO
_chemical_formula_sum   'H1 Pt27 C1 O1'
_cell_volume   1350.48407360
_cell_formula_units_Z   1
loop_
 _symmetry_equiv_pos_site_id
 _symmetry_equiv_pos_as_xyz
  1  'x, y, z'
loop_
 _atom_site_type_symbol
 _atom_site_label
 _atom_site_symmetry_multiplicity
 _atom_site_fract_x
 _atom_site_fract_y
 _atom_site_fract_z
 _atom_site_occupancy
  Pt  Pt0  1  0.06666700  0.13333400  0.40000000  1
  Pt  Pt1  1  0.06666700  0.46666700  0.40000000  1
  Pt  Pt2  1  0.06666700  0.80000100  0.40000000  1
  Pt  Pt3  1  0.40000000  0.13333400  0.40000000  1
  Pt  Pt4  1  0.40000000  0.46666700  0.40000000  1
  Pt  Pt5  1  0.40000000  0.80000100  0.40000000  1
  Pt  Pt6  1  0.73333400  0.13333400  0.40000000  1
  Pt  Pt7  1  0.73333400  0.46666700  0.40000000  1
  Pt  Pt8  1  0.73333400  0.80000100  0.40000000  1
  Pt  Pt9  1  0.17016947  0.00135200  0.50215454  1
  Pt  Pt10  1  0.16942629  0.33419395  0.50281061  1
  Pt  Pt11  1  0.17031640  0.66809898  0.50202457  1
  Pt  Pt12  1  0.50248720  0.00077725  0.50236577  1
  Pt  Pt13  1  0.50316409  0.33564127  0.50491952  1
  Pt  Pt14  1  0.50320654  0.66606721  0.50487661  1
  Pt  Pt15  1  0.83537783  0.00053481  0.50256834  1
  Pt  Pt16  1  0.83541038  0.33388883  0.50250716  1
  Pt  Pt17  1  0.83439789  0.66651961  0.50390603  1
  Pt  Pt18  1  0.27069800  0.20082029  0.60587049  1
  Pt  Pt19  1  0.27108532  0.53442132  0.60578795  1
  Pt  Pt20  1  0.27133452  0.86793817  0.60532503  1
  Pt  Pt21  1  0.60431479  0.19976107  0.60535621  1
  Pt  Pt22  1  0.60564999  0.53249980  0.61727719  1
  Pt  Pt23  1  0.60417276  0.86866347  0.60563431  1
  Pt  Pt24  1  0.93822615  0.20133273  0.60570711  1
  Pt  Pt25  1  0.94038845  0.53520919  0.60365632  1
  Pt  Pt26  1  0.94014217  0.87022235  0.60397454  1
  C  C27  1  0.62214565  0.52638419  0.70251262  1
  H  H28  1  0.48934724  0.48387383  0.72815308  1
  O  O29  1  0.76036487  0.56358385  0.73178613  1
