# generated using pymatgen
data_Mo27H
_symmetry_space_group_name_H-M   'P 1'
_cell_length_a   8.13431400
_cell_length_b   8.13432797
_cell_length_c   22.13894100
_cell_angle_alpha   90.00084524
_cell_angle_beta   90.00084525
_cell_angle_gamma   109.47202259
_symmetry_Int_Tables_number   1
_chemical_formula_structural   Mo27H
_chemical_formula_sum   'Mo27 H1'
_cell_volume   1381.08702123
_cell_formula_units_Z   1
loop_
 _symmetry_equiv_pos_site_id
 _symmetry_equiv_pos_as_xyz
  1  'x, y, z'
loop_
 _atom_site_type_symbol
 _atom_site_label
 _atom_site_symmetry_multiplicity
 _atom_site_fract_x
 _atom_site_fract_y
 _atom_site_fract_z
 _atom_site_occupancy
  Mo  Mo0  1  0.99923524  0.33353431  0.59376453  1
  Mo  Mo1  1  0.00055170  0.66761961  0.59458859  1
  Mo  Mo2  1  0.99877921  0.99877887  0.59432907  1
  Mo  Mo3  1  0.33400296  0.33400262  0.59432847  1
  Mo  Mo4  1  0.33220891  0.66515296  0.59459510  1
  Mo  Mo5  1  0.33353469  0.99923497  0.59376454  1
  Mo  Mo6  1  0.66515330  0.33220860  0.59459512  1
  Mo  Mo7  1  0.66642438  0.66642400  0.60349727  1
  Mo  Mo8  1  0.66761991  0.00055151  0.59458867  1
  Mo  Mo9  1  0.16653432  0.16653405  0.49745219  1
  Mo  Mo10  1  0.16621480  0.50013794  0.49730101  1
  Mo  Mo11  1  0.16684969  0.83292430  0.49729742  1
  Mo  Mo12  1  0.50013816  0.16621436  0.49730099  1
  Mo  Mo13  1  0.49926378  0.49926339  0.49731543  1
  Mo  Mo14  1  0.50130019  0.83175639  0.49806015  1
  Mo  Mo15  1  0.83292448  0.16684932  0.49729750  1
  Mo  Mo16  1  0.83175682  0.50129986  0.49806020  1
  Mo  Mo17  1  0.83380465  0.83380427  0.49731324  1
  Mo  Mo18  1  0.00000000  0.33333300  0.40000000  1
  Mo  Mo19  1  0.00000000  0.66666600  0.40000000  1
  Mo  Mo20  1  1.00000000  1.00000000  0.40000000  1
  Mo  Mo21  1  0.33333300  0.33333300  0.40000000  1
  Mo  Mo22  1  0.33333300  0.66666600  0.40000000  1
  Mo  Mo23  1  0.33333300  1.00000000  0.40000000  1
  Mo  Mo24  1  0.66666700  0.33333300  0.40000000  1
  Mo  Mo25  1  0.66666700  0.66666600  0.40000000  1
  Mo  Mo26  1  0.66666700  1.00000000  0.40000000  1
  H  H27  1  0.66644056  0.66644082  0.68892984  1
