# generated using pymatgen
data_Ni27CO2
_symmetry_space_group_name_H-M   'P 1'
_cell_length_a   7.33150949
_cell_length_b   7.33150889
_cell_length_c   21.99719400
_cell_angle_alpha   90.00513446
_cell_angle_beta   93.17934504
_cell_angle_gamma   119.99848735
_symmetry_Int_Tables_number   1
_chemical_formula_structural   Ni27CO2
_chemical_formula_sum   'Ni27 C1 O2'
_cell_volume   1021.87426739
_cell_formula_units_Z   1
loop_
 _symmetry_equiv_pos_site_id
 _symmetry_equiv_pos_as_xyz
  1  'x, y, z'
loop_
 _atom_site_type_symbol
 _atom_site_label
 _atom_site_symmetry_multiplicity
 _atom_site_fract_x
 _atom_site_fract_y
 _atom_site_fract_z
 _atom_site_occupancy
  Ni  Ni0  1  0.09090900  0.04545500  0.40909100  1
  Ni  Ni1  1  0.09090900  0.37878800  0.40909100  1
  Ni  Ni2  1  0.09090900  0.71212100  0.40909100  1
  Ni  Ni3  1  0.42424200  0.04545500  0.40909100  1
  Ni  Ni4  1  0.42424200  0.37878800  0.40909100  1
  Ni  Ni5  1  0.42424200  0.71212100  0.40909100  1
  Ni  Ni6  1  0.75757600  0.04545500  0.40909100  1
  Ni  Ni7  1  0.75757600  0.37878800  0.40909100  1
  Ni  Ni8  1  0.75757600  0.71212100  0.40909100  1
  Ni  Ni9  1  0.33368181  0.16722906  0.50056400  1
  Ni  Ni10  1  0.33572357  0.50097082  0.50144874  1
  Ni  Ni11  1  0.33399748  0.83302317  0.50038550  1
  Ni  Ni12  1  0.66665489  0.16652881  0.50079043  1
  Ni  Ni13  1  0.66604629  0.50104887  0.50142751  1
  Ni  Ni14  1  0.66596121  0.83112850  0.50112924  1
  Ni  Ni15  1  0.00068223  0.16687344  0.50096719  1
  Ni  Ni16  1  0.00011856  0.50011524  0.50009317  1
  Ni  Ni17  1  0.99940562  0.83296267  0.50032874  1
  Ni  Ni18  1  0.24221422  0.28695178  0.59240910  1
  Ni  Ni19  1  0.24108966  0.62151290  0.59164197  1
  Ni  Ni20  1  0.24206789  0.95359212  0.59141588  1
  Ni  Ni21  1  0.57606156  0.28705217  0.59195123  1
  Ni  Ni22  1  0.57707368  0.62219848  0.59776448  1
  Ni  Ni23  1  0.57588716  0.95513591  0.59194368  1
  Ni  Ni24  1  0.90955001  0.28878521  0.59165942  1
  Ni  Ni25  1  0.91032079  0.62162701  0.59173686  1
  Ni  Ni26  1  0.91031801  0.95490469  0.59178572  1
  C  C27  1  0.57974188  0.62436802  0.68524649  1
  O  O28  1  0.67097093  0.80397127  0.71044599  1
  O  O29  1  0.49041899  0.44510786  0.70765452  1
