# generated using pymatgen
data_Ni27HCO
_symmetry_space_group_name_H-M   'P 1'
_cell_length_a   7.33150949
_cell_length_b   7.33150889
_cell_length_c   21.99719400
_cell_angle_alpha   90.00513446
_cell_angle_beta   93.17934504
_cell_angle_gamma   119.99848735
_symmetry_Int_Tables_number   1
_chemical_formula_structural   Ni27HCO
_chemical_formula_sum   'Ni27 H1 C1 O1'
_cell_volume   1021.87426739
_cell_formula_units_Z   1
loop_
 _symmetry_equiv_pos_site_id
 _symmetry_equiv_pos_as_xyz
  1  'x, y, z'
loop_
 _atom_site_type_symbol
 _atom_site_label
 _atom_site_symmetry_multiplicity
 _atom_site_fract_x
 _atom_site_fract_y
 _atom_site_fract_z
 _atom_site_occupancy
  Ni  Ni0  1  0.09090900  0.04545500  0.40909100  1
  Ni  Ni1  1  0.09090900  0.37878800  0.40909100  1
  Ni  Ni2  1  0.09090900  0.71212100  0.40909100  1
  Ni  Ni3  1  0.42424200  0.04545500  0.40909100  1
  Ni  Ni4  1  0.42424200  0.37878800  0.40909100  1
  Ni  Ni5  1  0.42424200  0.71212100  0.40909100  1
  Ni  Ni6  1  0.75757600  0.04545500  0.40909100  1
  Ni  Ni7  1  0.75757600  0.37878800  0.40909100  1
  Ni  Ni8  1  0.75757600  0.71212100  0.40909100  1
  Ni  Ni9  1  0.33116489  0.16787196  0.50004923  1
  Ni  Ni10  1  0.33328898  0.50174855  0.50140503  1
  Ni  Ni11  1  0.33136547  0.83384157  0.50038503  1
  Ni  Ni12  1  0.66495525  0.16783887  0.50038889  1
  Ni  Ni13  1  0.66586005  0.50227736  0.50148059  1
  Ni  Ni14  1  0.66374744  0.83202646  0.50114968  1
  Ni  Ni15  1  0.99809679  0.16734676  0.49929190  1
  Ni  Ni16  1  0.99722128  0.50224715  0.50186173  1
  Ni  Ni17  1  0.99678093  0.83189675  0.50188457  1
  Ni  Ni18  1  0.23705495  0.28741100  0.59134383  1
  Ni  Ni19  1  0.23972975  0.62345810  0.59144509  1
  Ni  Ni20  1  0.24139964  0.95748755  0.59154762  1
  Ni  Ni21  1  0.56871957  0.28473243  0.59143812  1
  Ni  Ni22  1  0.57369341  0.62399869  0.59703748  1
  Ni  Ni23  1  0.57180566  0.95722180  0.59174730  1
  Ni  Ni24  1  0.90615619  0.28754411  0.59124435  1
  Ni  Ni25  1  0.91022550  0.62313264  0.59722891  1
  Ni  Ni26  1  0.90613853  0.96041485  0.59159714  1
  C  C27  1  0.68004497  0.63514522  0.67380769  1
  H  H28  1  0.59187198  0.64244219  0.71262071  1
  O  O29  1  0.84880184  0.63315392  0.68792662  1
