# generated using pymatgen
data_Ni27CO
_symmetry_space_group_name_H-M   'P 1'
_cell_length_a   7.33150949
_cell_length_b   7.33150889
_cell_length_c   21.99719400
_cell_angle_alpha   90.00513446
_cell_angle_beta   93.17934504
_cell_angle_gamma   119.99848735
_symmetry_Int_Tables_number   1
_chemical_formula_structural   Ni27CO
_chemical_formula_sum   'Ni27 C1 O1'
_cell_volume   1021.87426739
_cell_formula_units_Z   1
loop_
 _symmetry_equiv_pos_site_id
 _symmetry_equiv_pos_as_xyz
  1  'x, y, z'
loop_
 _atom_site_type_symbol
 _atom_site_label
 _atom_site_symmetry_multiplicity
 _atom_site_fract_x
 _atom_site_fract_y
 _atom_site_fract_z
 _atom_site_occupancy
  Ni  Ni0  1  0.09090900  0.04545500  0.40909100  1
  Ni  Ni1  1  0.09090900  0.37878800  0.40909100  1
  Ni  Ni2  1  0.09090900  0.71212100  0.40909100  1
  Ni  Ni3  1  0.42424200  0.04545500  0.40909100  1
  Ni  Ni4  1  0.42424200  0.37878800  0.40909100  1
  Ni  Ni5  1  0.42424200  0.71212100  0.40909100  1
  Ni  Ni6  1  0.75757600  0.04545500  0.40909100  1
  Ni  Ni7  1  0.75757600  0.37878800  0.40909100  1
  Ni  Ni8  1  0.75757600  0.71212100  0.40909100  1
  Ni  Ni9  1  0.33401299  0.16763125  0.50082309  1
  Ni  Ni10  1  0.33608905  0.50128653  0.50170535  1
  Ni  Ni11  1  0.33391304  0.83296376  0.50074621  1
  Ni  Ni12  1  0.66658347  0.16654520  0.50032680  1
  Ni  Ni13  1  0.66582345  0.50151075  0.50189420  1
  Ni  Ni14  1  0.66576833  0.83056032  0.50193191  1
  Ni  Ni15  1  0.00045513  0.16671002  0.50042192  1
  Ni  Ni16  1  0.00038382  0.50026391  0.50040569  1
  Ni  Ni17  1  0.99955698  0.83305593  0.50066553  1
  Ni  Ni18  1  0.24032247  0.28511867  0.59219140  1
  Ni  Ni19  1  0.24039458  0.62201581  0.59213560  1
  Ni  Ni20  1  0.24269062  0.95465444  0.59182945  1
  Ni  Ni21  1  0.57626393  0.28526437  0.59205282  1
  Ni  Ni22  1  0.57783523  0.62226648  0.59909227  1
  Ni  Ni23  1  0.57618308  0.95740073  0.59199673  1
  Ni  Ni24  1  0.90925436  0.28791379  0.59141823  1
  Ni  Ni25  1  0.91239160  0.62207774  0.59192614  1
  Ni  Ni26  1  0.91228730  0.95697820  0.59194086  1
  O  O27  1  0.56523769  0.61167020  0.73011252  1
  C  C28  1  0.56768353  0.61423685  0.67695790  1
