# generated using pymatgen
data_Mo27CO2
_symmetry_space_group_name_H-M   'P 1'
_cell_length_a   8.13431400
_cell_length_b   8.13432797
_cell_length_c   22.13894100
_cell_angle_alpha   90.00084524
_cell_angle_beta   90.00084525
_cell_angle_gamma   109.47202259
_symmetry_Int_Tables_number   1
_chemical_formula_structural   Mo27CO2
_chemical_formula_sum   'Mo27 C1 O2'
_cell_volume   1381.08702123
_cell_formula_units_Z   1
loop_
 _symmetry_equiv_pos_site_id
 _symmetry_equiv_pos_as_xyz
  1  'x, y, z'
loop_
 _atom_site_type_symbol
 _atom_site_label
 _atom_site_symmetry_multiplicity
 _atom_site_fract_x
 _atom_site_fract_y
 _atom_site_fract_z
 _atom_site_occupancy
  Mo  Mo0  1  0.99844506  0.33515844  0.59535424  1
  Mo  Mo1  1  0.00023186  0.66733051  0.59470563  1
  Mo  Mo2  1  0.99991312  0.99988869  0.59358176  1
  Mo  Mo3  1  0.33287323  0.33282700  0.59357549  1
  Mo  Mo4  1  0.33255106  0.66538222  0.59471745  1
  Mo  Mo5  1  0.33434151  0.99756741  0.59536299  1
  Mo  Mo6  1  0.66948067  0.33185558  0.59798764  1
  Mo  Mo7  1  0.66634785  0.66627196  0.59467059  1
  Mo  Mo8  1  0.66332406  0.00087152  0.59803492  1
  Mo  Mo9  1  0.16652063  0.16650018  0.49838104  1
  Mo  Mo10  1  0.16616520  0.50005122  0.49751206  1
  Mo  Mo11  1  0.16690529  0.83297361  0.49751339  1
  Mo  Mo12  1  0.50110672  0.16528374  0.49842771  1
  Mo  Mo13  1  0.49774736  0.49720624  0.49631206  1
  Mo  Mo14  1  0.50017280  0.83295632  0.49771928  1
  Mo  Mo15  1  0.83196137  0.16773302  0.49842247  1
  Mo  Mo16  1  0.83289735  0.50006561  0.49770041  1
  Mo  Mo17  1  0.83528958  0.83580364  0.49633864  1
  Mo  Mo18  1  0.00000000  0.33333300  0.40000000  1
  Mo  Mo19  1  0.00000000  0.66666600  0.40000000  1
  Mo  Mo20  1  1.00000000  1.00000000  0.40000000  1
  Mo  Mo21  1  0.33333300  0.33333300  0.40000000  1
  Mo  Mo22  1  0.33333300  0.66666600  0.40000000  1
  Mo  Mo23  1  0.33333300  1.00000000  0.40000000  1
  Mo  Mo24  1  0.66666700  0.33333300  0.40000000  1
  Mo  Mo25  1  0.66666700  0.66666600  0.40000000  1
  Mo  Mo26  1  0.66666700  1.00000000  0.40000000  1
  C  C27  1  0.66652284  0.66670081  0.69182460  1
  O  O28  1  0.68503820  0.81131797  0.71801868  1
  O  O29  1  0.64808073  0.52205073  0.71815285  1
