# generated using pymatgen
data_Mo27H
_symmetry_space_group_name_H-M   'P 1'
_cell_length_a   8.13431400
_cell_length_b   8.13432797
_cell_length_c   22.13894100
_cell_angle_alpha   90.00084524
_cell_angle_beta   90.00084525
_cell_angle_gamma   109.47202259
_symmetry_Int_Tables_number   1
_chemical_formula_structural   Mo27H
_chemical_formula_sum   'Mo27 H1'
_cell_volume   1381.08702123
_cell_formula_units_Z   1
loop_
 _symmetry_equiv_pos_site_id
 _symmetry_equiv_pos_as_xyz
  1  'x, y, z'
loop_
 _atom_site_type_symbol
 _atom_site_label
 _atom_site_symmetry_multiplicity
 _atom_site_fract_x
 _atom_site_fract_y
 _atom_site_fract_z
 _atom_site_occupancy
  Mo  Mo0  1  0.99900976  0.33335385  0.59463747  1
  Mo  Mo1  1  0.00037281  0.66601919  0.59463088  1
  Mo  Mo2  1  0.99969120  0.99969081  0.59348131  1
  Mo  Mo3  1  0.32959410  0.32959367  0.59503509  1
  Mo  Mo4  1  0.33264995  0.66674004  0.59527752  1
  Mo  Mo5  1  0.33335416  0.99900946  0.59463717  1
  Mo  Mo6  1  0.66674061  0.33264937  0.59527762  1
  Mo  Mo7  1  0.66982386  0.66982320  0.59503741  1
  Mo  Mo8  1  0.66601959  0.00037235  0.59463082  1
  Mo  Mo9  1  0.16617616  0.16617607  0.49657301  1
  Mo  Mo10  1  0.16656918  0.49970851  0.49748469  1
  Mo  Mo11  1  0.16734057  0.83237449  0.49728797  1
  Mo  Mo12  1  0.49970867  0.16656858  0.49748461  1
  Mo  Mo13  1  0.49986045  0.49985991  0.49702555  1
  Mo  Mo14  1  0.50000450  0.83314856  0.49748246  1
  Mo  Mo15  1  0.83237467  0.16734015  0.49728807  1
  Mo  Mo16  1  0.83314913  0.50000401  0.49748261  1
  Mo  Mo17  1  0.83353607  0.83353565  0.49656641  1
  Mo  Mo18  1  0.00000000  0.33333300  0.40000000  1
  Mo  Mo19  1  0.00000000  0.66666600  0.40000000  1
  Mo  Mo20  1  1.00000000  1.00000000  0.40000000  1
  Mo  Mo21  1  0.33333300  0.33333300  0.40000000  1
  Mo  Mo22  1  0.33333300  0.66666600  0.40000000  1
  Mo  Mo23  1  0.33333300  1.00000000  0.40000000  1
  Mo  Mo24  1  0.66666700  0.33333300  0.40000000  1
  Mo  Mo25  1  0.66666700  0.66666600  0.40000000  1
  Mo  Mo26  1  0.66666700  1.00000000  0.40000000  1
  H  H27  1  0.49974427  0.49974566  0.64399296  1
