# generated using pymatgen
data_Ni27N2
_symmetry_space_group_name_H-M   'P 1'
_cell_length_a   7.33150949
_cell_length_b   7.33150889
_cell_length_c   21.99719400
_cell_angle_alpha   90.00513446
_cell_angle_beta   93.17934504
_cell_angle_gamma   119.99848735
_symmetry_Int_Tables_number   1
_chemical_formula_structural   Ni27N2
_chemical_formula_sum   'Ni27 N2'
_cell_volume   1021.87426739
_cell_formula_units_Z   1
loop_
 _symmetry_equiv_pos_site_id
 _symmetry_equiv_pos_as_xyz
  1  'x, y, z'
loop_
 _atom_site_type_symbol
 _atom_site_label
 _atom_site_symmetry_multiplicity
 _atom_site_fract_x
 _atom_site_fract_y
 _atom_site_fract_z
 _atom_site_occupancy
  Ni  Ni0  1  0.09090900  0.04545500  0.40909100  1
  Ni  Ni1  1  0.09090900  0.37878800  0.40909100  1
  Ni  Ni2  1  0.09090900  0.71212100  0.40909100  1
  Ni  Ni3  1  0.42424200  0.04545500  0.40909100  1
  Ni  Ni4  1  0.42424200  0.37878800  0.40909100  1
  Ni  Ni5  1  0.42424200  0.71212100  0.40909100  1
  Ni  Ni6  1  0.75757600  0.04545500  0.40909100  1
  Ni  Ni7  1  0.75757600  0.37878800  0.40909100  1
  Ni  Ni8  1  0.75757600  0.71212100  0.40909100  1
  Ni  Ni9  1  0.33386724  0.16729954  0.50025335  1
  Ni  Ni10  1  0.33733125  0.50194246  0.50226735  1
  Ni  Ni11  1  0.33382100  0.83323710  0.50020512  1
  Ni  Ni12  1  0.66695985  0.16681603  0.49992780  1
  Ni  Ni13  1  0.66571714  0.50212770  0.50236025  1
  Ni  Ni14  1  0.66569719  0.83008969  0.50234743  1
  Ni  Ni15  1  0.00004940  0.16671188  0.49996458  1
  Ni  Ni16  1  0.00007574  0.49999715  0.49993503  1
  Ni  Ni17  1  0.00002281  0.83331639  0.50028620  1
  Ni  Ni18  1  0.24006075  0.28464959  0.59135466  1
  Ni  Ni19  1  0.24017955  0.62205558  0.59133013  1
  Ni  Ni20  1  0.24309348  0.95488367  0.59164141  1
  Ni  Ni21  1  0.57567607  0.28526885  0.59141516  1
  Ni  Ni22  1  0.57784314  0.62222436  0.60328866  1
  Ni  Ni23  1  0.57563667  0.95684420  0.59139385  1
  Ni  Ni24  1  0.90925622  0.28785789  0.59134321  1
  Ni  Ni25  1  0.91207766  0.62220876  0.59146423  1
  Ni  Ni26  1  0.91186638  0.95627435  0.59148239  1
  N  N27  1  0.58556822  0.62611957  0.68544903  1
  N  N28  1  0.58720347  0.62694808  0.73666662  1
