# generated using pymatgen
data_Mo27H3N
_symmetry_space_group_name_H-M   'P 1'
_cell_length_a   8.13431400
_cell_length_b   8.13432797
_cell_length_c   22.13894100
_cell_angle_alpha   90.00084524
_cell_angle_beta   90.00084525
_cell_angle_gamma   109.47202259
_symmetry_Int_Tables_number   1
_chemical_formula_structural   Mo27H3N
_chemical_formula_sum   'Mo27 H3 N1'
_cell_volume   1381.08702123
_cell_formula_units_Z   1
loop_
 _symmetry_equiv_pos_site_id
 _symmetry_equiv_pos_as_xyz
  1  'x, y, z'
loop_
 _atom_site_type_symbol
 _atom_site_label
 _atom_site_symmetry_multiplicity
 _atom_site_fract_x
 _atom_site_fract_y
 _atom_site_fract_z
 _atom_site_occupancy
  Mo  Mo0  1  0.99916241  0.33365225  0.59468100  1
  Mo  Mo1  1  0.00053904  0.66842463  0.59403486  1
  Mo  Mo2  1  0.00014446  0.00000303  0.59435876  1
  Mo  Mo3  1  0.33262328  0.33249299  0.59427572  1
  Mo  Mo4  1  0.33203092  0.66430533  0.59406229  1
  Mo  Mo5  1  0.33386719  0.99895378  0.59468019  1
  Mo  Mo6  1  0.66435520  0.33227170  0.59408922  1
  Mo  Mo7  1  0.66614275  0.66639451  0.60254494  1
  Mo  Mo8  1  0.66850067  0.00078915  0.59400604  1
  Mo  Mo9  1  0.16651666  0.16656840  0.49715904  1
  Mo  Mo10  1  0.16596576  0.49986413  0.49721730  1
  Mo  Mo11  1  0.16715216  0.83322915  0.49719997  1
  Mo  Mo12  1  0.49985032  0.16594203  0.49718227  1
  Mo  Mo13  1  0.49909035  0.49905967  0.49697894  1
  Mo  Mo14  1  0.50129951  0.83179722  0.49761728  1
  Mo  Mo15  1  0.83321743  0.16712629  0.49723546  1
  Mo  Mo16  1  0.83179920  0.50129794  0.49761893  1
  Mo  Mo17  1  0.83404236  0.83400827  0.49695767  1
  Mo  Mo18  1  0.00000000  0.33333300  0.40000000  1
  Mo  Mo19  1  0.00000000  0.66666600  0.40000000  1
  Mo  Mo20  1  1.00000000  1.00000000  0.40000000  1
  Mo  Mo21  1  0.33333300  0.33333300  0.40000000  1
  Mo  Mo22  1  0.33333300  0.66666600  0.40000000  1
  Mo  Mo23  1  0.33333300  1.00000000  0.40000000  1
  Mo  Mo24  1  0.66666700  0.33333300  0.40000000  1
  Mo  Mo25  1  0.66666700  0.66666600  0.40000000  1
  Mo  Mo26  1  0.66666700  1.00000000  0.40000000  1
  N  N27  1  0.66283136  0.66654766  0.70387441  1
  H  H28  1  0.78571535  0.70099662  0.72250153  1
  H  H29  1  0.60719155  0.75348272  0.72107114  1
  H  H30  1  0.59269769  0.54674753  0.72182876  1
