# generated using pymatgen
data_Ni27N2
_symmetry_space_group_name_H-M   'P 1'
_cell_length_a   7.33150949
_cell_length_b   7.33150889
_cell_length_c   21.99719400
_cell_angle_alpha   90.00513446
_cell_angle_beta   93.17934504
_cell_angle_gamma   119.99848735
_symmetry_Int_Tables_number   1
_chemical_formula_structural   Ni27N2
_chemical_formula_sum   'Ni27 N2'
_cell_volume   1021.87426739
_cell_formula_units_Z   1
loop_
 _symmetry_equiv_pos_site_id
 _symmetry_equiv_pos_as_xyz
  1  'x, y, z'
loop_
 _atom_site_type_symbol
 _atom_site_label
 _atom_site_symmetry_multiplicity
 _atom_site_fract_x
 _atom_site_fract_y
 _atom_site_fract_z
 _atom_site_occupancy
  Ni  Ni0  1  0.09090900  0.04545500  0.40909100  1
  Ni  Ni1  1  0.09090900  0.37878800  0.40909100  1
  Ni  Ni2  1  0.09090900  0.71212100  0.40909100  1
  Ni  Ni3  1  0.42424200  0.04545500  0.40909100  1
  Ni  Ni4  1  0.42424200  0.37878800  0.40909100  1
  Ni  Ni5  1  0.42424200  0.71212100  0.40909100  1
  Ni  Ni6  1  0.75757600  0.04545500  0.40909100  1
  Ni  Ni7  1  0.75757600  0.37878800  0.40909100  1
  Ni  Ni8  1  0.75757600  0.71212100  0.40909100  1
  Ni  Ni9  1  0.33369527  0.16713835  0.50002131  1
  Ni  Ni10  1  0.33715338  0.50182102  0.50198720  1
  Ni  Ni11  1  0.33363975  0.83309925  0.49996010  1
  Ni  Ni12  1  0.66682621  0.16669952  0.49964646  1
  Ni  Ni13  1  0.66560118  0.50190280  0.50206966  1
  Ni  Ni14  1  0.66563164  0.83013397  0.50204581  1
  Ni  Ni15  1  0.99998171  0.16667937  0.49965959  1
  Ni  Ni16  1  0.99996589  0.49992954  0.49968177  1
  Ni  Ni17  1  0.99976831  0.83316353  0.50005246  1
  Ni  Ni18  1  0.23969840  0.28438675  0.59108297  1
  Ni  Ni19  1  0.23981866  0.62187670  0.59106204  1
  Ni  Ni20  1  0.24269862  0.95458405  0.59141167  1
  Ni  Ni21  1  0.57540380  0.28472321  0.59113023  1
  Ni  Ni22  1  0.57766706  0.62212803  0.60134721  1
  Ni  Ni23  1  0.57534281  0.95694656  0.59109471  1
  Ni  Ni24  1  0.90907303  0.28773719  0.59105210  1
  Ni  Ni25  1  0.91212756  0.62192825  0.59118135  1
  Ni  Ni26  1  0.91202077  0.95664239  0.59118607  1
  N  N27  1  0.58711351  0.62678029  0.68346094  1
  N  N28  1  0.58979937  0.62803659  0.73459933  1
