# generated using pymatgen
data_H3Rh27N
_symmetry_space_group_name_H-M   'P 1'
_cell_length_a   8.03672266
_cell_length_b   8.03669826
_cell_length_c   21.92791400
_cell_angle_alpha   86.49772645
_cell_angle_beta   86.49795137
_cell_angle_gamma   59.99991575
_symmetry_Int_Tables_number   1
_chemical_formula_structural   H3Rh27N
_chemical_formula_sum   'H3 Rh27 N1'
_cell_volume   1223.49202859
_cell_formula_units_Z   1
loop_
 _symmetry_equiv_pos_site_id
 _symmetry_equiv_pos_as_xyz
  1  'x, y, z'
loop_
 _atom_site_type_symbol
 _atom_site_label
 _atom_site_symmetry_multiplicity
 _atom_site_fract_x
 _atom_site_fract_y
 _atom_site_fract_z
 _atom_site_occupancy
  Rh  Rh0  1  0.06666700  0.06666700  0.40000000  1
  Rh  Rh1  1  0.06666700  0.40000000  0.40000000  1
  Rh  Rh2  1  0.06666700  0.73333300  0.40000000  1
  Rh  Rh3  1  0.40000000  0.06666700  0.40000000  1
  Rh  Rh4  1  0.40000000  0.40000000  0.40000000  1
  Rh  Rh5  1  0.40000000  0.73333300  0.40000000  1
  Rh  Rh6  1  0.73333300  0.06666700  0.40000000  1
  Rh  Rh7  1  0.73333300  0.40000000  0.40000000  1
  Rh  Rh8  1  0.73333300  0.73333300  0.40000000  1
  Rh  Rh9  1  0.16694705  0.16724585  0.49806531  1
  Rh  Rh10  1  0.16722735  0.50028701  0.49804360  1
  Rh  Rh11  1  0.16745892  0.83343219  0.49829482  1
  Rh  Rh12  1  0.50020387  0.16718773  0.49805566  1
  Rh  Rh13  1  0.50165497  0.50173339  0.49926262  1
  Rh  Rh14  1  0.50154520  0.83093202  0.49914441  1
  Rh  Rh15  1  0.83338496  0.16755831  0.49831009  1
  Rh  Rh16  1  0.83078751  0.50166060  0.49916883  1
  Rh  Rh17  1  0.83337580  0.83351050  0.49826056  1
  Rh  Rh18  1  0.26721518  0.26738510  0.59673367  1
  Rh  Rh19  1  0.26534333  0.60108032  0.59652395  1
  Rh  Rh20  1  0.26496270  0.93600546  0.59635949  1
  Rh  Rh21  1  0.60091376  0.26537821  0.59645219  1
  Rh  Rh22  1  0.60006983  0.60044712  0.60251114  1
  Rh  Rh23  1  0.60094318  0.93594922  0.59640820  1
  Rh  Rh24  1  0.93553958  0.26538575  0.59649316  1
  Rh  Rh25  1  0.93597381  0.60107188  0.59631530  1
  Rh  Rh26  1  0.93386548  0.93398989  0.59672387  1
  N  N27  1  0.59120548  0.59401771  0.69956167  1
  H  H28  1  0.68565864  0.63049334  0.71596324  1
  H  H29  1  0.45647380  0.68907075  0.71699193  1
  H  H30  1  0.62696715  0.45969681  0.71785734  1
