# generated using pymatgen
data_Mo12H(S8N)2
_symmetry_space_group_name_H-M   'P 1'
_cell_length_a   6.40582443
_cell_length_b   6.40502189
_cell_length_c   27.80788600
_cell_angle_alpha   91.26713631
_cell_angle_beta   91.36148131
_cell_angle_gamma   91.33958978
_symmetry_Int_Tables_number   1
_chemical_formula_structural   Mo12H(S8N)2
_chemical_formula_sum   'Mo12 H1 S16 N2'
_cell_volume   1140.01494538
_cell_formula_units_Z   1
loop_
 _symmetry_equiv_pos_site_id
 _symmetry_equiv_pos_as_xyz
  1  'x, y, z'
loop_
 _atom_site_type_symbol
 _atom_site_label
 _atom_site_symmetry_multiplicity
 _atom_site_fract_x
 _atom_site_fract_y
 _atom_site_fract_z
 _atom_site_occupancy
  Mo  Mo0  1  0.21053600  0.55052600  0.34322700  1
  Mo  Mo1  1  0.21162937  0.54576978  0.57466223  1
  Mo  Mo2  1  0.78879735  0.44866344  0.38676810  1
  Mo  Mo3  1  0.79020099  0.44148939  0.61892838  1
  Mo  Mo4  1  0.40812218  0.21378326  0.37667256  1
  Mo  Mo5  1  0.40786338  0.20955415  0.60658251  1
  Mo  Mo6  1  0.59470900  0.78943200  0.35357800  1
  Mo  Mo7  1  0.59267458  0.78108134  0.58460495  1
  Mo  Mo8  1  0.55045000  0.40548900  0.29849800  1
  Mo  Mo9  1  0.55009023  0.40030789  0.52893406  1
  Mo  Mo10  1  0.45089237  0.59486638  0.43192127  1
  Mo  Mo11  1  0.45188252  0.58980439  0.66576030  1
  S  S12  1  0.13310796  0.38634386  0.41984834  1
  S  S13  1  0.13275573  0.38156817  0.65148967  1
  S  S14  1  0.86792400  0.61363500  0.31056000  1
  S  S15  1  0.86812770  0.60472605  0.54204373  1
  S  S16  1  0.73733500  0.13203700  0.33909000  1
  S  S17  1  0.73792691  0.12431101  0.56846134  1
  S  S18  1  0.26303200  0.86927315  0.39156513  1
  S  S19  1  0.26368161  0.86263087  0.62378016  1
  S  S20  1  0.38668300  0.73747600  0.28032400  1
  S  S21  1  0.38471260  0.73312285  0.51113668  1
  S  S22  1  0.61601106  0.26207906  0.44989547  1
  S  S23  1  0.60835160  0.24962250  0.67968535  1
  S  S24  1  0.21767900  0.21800500  0.30009800  1
  S  S25  1  0.21652629  0.21526244  0.52960474  1
  S  S26  1  0.78440558  0.78117619  0.43072099  1
  S  S27  1  0.78451496  0.77879977  0.65975357  1
  N  N28  1  0.46286526  0.64841680  0.73239066  1
  N  N29  1  0.46808898  0.67167432  0.77555271  1
  H  H30  1  0.56436557  0.57153512  0.79487961  1
