# generated using pymatgen
data_H3Rh27N
_symmetry_space_group_name_H-M   'P 1'
_cell_length_a   8.03672266
_cell_length_b   8.03669826
_cell_length_c   21.92791400
_cell_angle_alpha   86.49772645
_cell_angle_beta   86.49795137
_cell_angle_gamma   59.99991575
_symmetry_Int_Tables_number   1
_chemical_formula_structural   H3Rh27N
_chemical_formula_sum   'H3 Rh27 N1'
_cell_volume   1223.49202859
_cell_formula_units_Z   1
loop_
 _symmetry_equiv_pos_site_id
 _symmetry_equiv_pos_as_xyz
  1  'x, y, z'
loop_
 _atom_site_type_symbol
 _atom_site_label
 _atom_site_symmetry_multiplicity
 _atom_site_fract_x
 _atom_site_fract_y
 _atom_site_fract_z
 _atom_site_occupancy
  Rh  Rh0  1  0.06666700  0.06666700  0.40000000  1
  Rh  Rh1  1  0.06666700  0.40000000  0.40000000  1
  Rh  Rh2  1  0.06666700  0.73333300  0.40000000  1
  Rh  Rh3  1  0.40000000  0.06666700  0.40000000  1
  Rh  Rh4  1  0.40000000  0.40000000  0.40000000  1
  Rh  Rh5  1  0.40000000  0.73333300  0.40000000  1
  Rh  Rh6  1  0.73333300  0.06666700  0.40000000  1
  Rh  Rh7  1  0.73333300  0.40000000  0.40000000  1
  Rh  Rh8  1  0.73333300  0.73333300  0.40000000  1
  Rh  Rh9  1  0.16694661  0.16716834  0.49811638  1
  Rh  Rh10  1  0.16720923  0.50029866  0.49807650  1
  Rh  Rh11  1  0.16763657  0.83330802  0.49844842  1
  Rh  Rh12  1  0.50027930  0.16712863  0.49809443  1
  Rh  Rh13  1  0.50142163  0.50144201  0.49954405  1
  Rh  Rh14  1  0.50131998  0.83132404  0.49941325  1
  Rh  Rh15  1  0.83330781  0.16767586  0.49846476  1
  Rh  Rh16  1  0.83123702  0.50137219  0.49944514  1
  Rh  Rh17  1  0.83332272  0.83337527  0.49841288  1
  Rh  Rh18  1  0.26724527  0.26732300  0.59701036  1
  Rh  Rh19  1  0.26517272  0.60111656  0.59687041  1
  Rh  Rh20  1  0.26482576  0.93594465  0.59671167  1
  Rh  Rh21  1  0.60104933  0.26514482  0.59681460  1
  Rh  Rh22  1  0.60017787  0.60044072  0.60173149  1
  Rh  Rh23  1  0.60109442  0.93592041  0.59673909  1
  Rh  Rh24  1  0.93560094  0.26512855  0.59684035  1
  Rh  Rh25  1  0.93600595  0.60112107  0.59666650  1
  Rh  Rh26  1  0.93389692  0.93392555  0.59702292  1
  N  N27  1  0.59159877  0.59517897  0.69898411  1
  H  H28  1  0.68689244  0.63181491  0.71446543  1
  H  H29  1  0.45672384  0.69140466  0.71585465  1
  H  H30  1  0.62716144  0.46097056  0.71718050  1
