# generated using pymatgen
data_HRh27CO
_symmetry_space_group_name_H-M   'P 1'
_cell_length_a   8.03672266
_cell_length_b   8.03669826
_cell_length_c   21.92791400
_cell_angle_alpha   86.49772645
_cell_angle_beta   86.49795137
_cell_angle_gamma   59.99991575
_symmetry_Int_Tables_number   1
_chemical_formula_structural   HRh27CO
_chemical_formula_sum   'H1 Rh27 C1 O1'
_cell_volume   1223.49202859
_cell_formula_units_Z   1
loop_
 _symmetry_equiv_pos_site_id
 _symmetry_equiv_pos_as_xyz
  1  'x, y, z'
loop_
 _atom_site_type_symbol
 _atom_site_label
 _atom_site_symmetry_multiplicity
 _atom_site_fract_x
 _atom_site_fract_y
 _atom_site_fract_z
 _atom_site_occupancy
  Rh  Rh0  1  0.06666700  0.06666700  0.40000000  1
  Rh  Rh1  1  0.06666700  0.40000000  0.40000000  1
  Rh  Rh2  1  0.06666700  0.73333300  0.40000000  1
  Rh  Rh3  1  0.40000000  0.06666700  0.40000000  1
  Rh  Rh4  1  0.40000000  0.40000000  0.40000000  1
  Rh  Rh5  1  0.40000000  0.73333300  0.40000000  1
  Rh  Rh6  1  0.73333300  0.06666700  0.40000000  1
  Rh  Rh7  1  0.73333300  0.40000000  0.40000000  1
  Rh  Rh8  1  0.73333300  0.73333300  0.40000000  1
  Rh  Rh9  1  0.16773774  0.16686533  0.49828394  1
  Rh  Rh10  1  0.16887561  0.50054959  0.49887743  1
  Rh  Rh11  1  0.16885198  0.83153081  0.49909656  1
  Rh  Rh12  1  0.50127903  0.16796313  0.49884749  1
  Rh  Rh13  1  0.50098221  0.50007531  0.49834672  1
  Rh  Rh14  1  0.50136734  0.83188848  0.49887713  1
  Rh  Rh15  1  0.83283979  0.16776711  0.49895228  1
  Rh  Rh16  1  0.83292446  0.50046750  0.49879424  1
  Rh  Rh17  1  0.83439547  0.83334212  0.49842277  1
  Rh  Rh18  1  0.26656635  0.26507550  0.59704631  1
  Rh  Rh19  1  0.26390385  0.60189744  0.60174276  1
  Rh  Rh20  1  0.26664010  0.93749536  0.59697513  1
  Rh  Rh21  1  0.60420079  0.26148941  0.60155686  1
  Rh  Rh22  1  0.60456256  0.60300317  0.60093902  1
  Rh  Rh23  1  0.60201099  0.93409603  0.59742624  1
  Rh  Rh24  1  0.93927735  0.26502563  0.59692221  1
  Rh  Rh25  1  0.93561135  0.60041159  0.59751575  1
  Rh  Rh26  1  0.93490129  0.93337371  0.59750534  1
  C  C27  1  0.48542255  0.48625418  0.65687180  1
  H  H28  1  0.57949801  0.48785580  0.73635019  1
  O  O29  1  0.47493022  0.47678240  0.71849754  1
