# generated using pymatgen
data_Mo27HCO
_symmetry_space_group_name_H-M   'P 1'
_cell_length_a   8.13431400
_cell_length_b   8.13432797
_cell_length_c   22.13894100
_cell_angle_alpha   90.00084524
_cell_angle_beta   90.00084525
_cell_angle_gamma   109.47202259
_symmetry_Int_Tables_number   1
_chemical_formula_structural   Mo27HCO
_chemical_formula_sum   'Mo27 H1 C1 O1'
_cell_volume   1381.08702123
_cell_formula_units_Z   1
loop_
 _symmetry_equiv_pos_site_id
 _symmetry_equiv_pos_as_xyz
  1  'x, y, z'
loop_
 _atom_site_type_symbol
 _atom_site_label
 _atom_site_symmetry_multiplicity
 _atom_site_fract_x
 _atom_site_fract_y
 _atom_site_fract_z
 _atom_site_occupancy
  Mo  Mo0  1  0.99784343  0.33683289  0.59470282  1
  Mo  Mo1  1  0.00286873  0.66507190  0.59486572  1
  Mo  Mo2  1  0.00077777  0.00090884  0.59239933  1
  Mo  Mo3  1  0.32938173  0.33033355  0.59631837  1
  Mo  Mo4  1  0.33791969  0.66401030  0.59812473  1
  Mo  Mo5  1  0.33630250  0.99908709  0.59508740  1
  Mo  Mo6  1  0.66266044  0.33896820  0.59876539  1
  Mo  Mo7  1  0.67192968  0.67247511  0.59569703  1
  Mo  Mo8  1  0.66438474  0.00378244  0.59468650  1
  Mo  Mo9  1  0.16478456  0.16500014  0.49584374  1
  Mo  Mo10  1  0.16707432  0.50004383  0.49795284  1
  Mo  Mo11  1  0.16839632  0.83256826  0.49771190  1
  Mo  Mo12  1  0.49961510  0.16769346  0.49816492  1
  Mo  Mo13  1  0.50016533  0.50047981  0.49682356  1
  Mo  Mo14  1  0.50055250  0.83388707  0.49798236  1
  Mo  Mo15  1  0.83193485  0.16904565  0.49782493  1
  Mo  Mo16  1  0.83336472  0.50138429  0.49800787  1
  Mo  Mo17  1  0.83582580  0.83627802  0.49583310  1
  Mo  Mo18  1  0.00000000  0.33333300  0.40000000  1
  Mo  Mo19  1  0.00000000  0.66666600  0.40000000  1
  Mo  Mo20  1  1.00000000  1.00000000  0.40000000  1
  Mo  Mo21  1  0.33333300  0.33333300  0.40000000  1
  Mo  Mo22  1  0.33333300  0.66666600  0.40000000  1
  Mo  Mo23  1  0.33333300  1.00000000  0.40000000  1
  Mo  Mo24  1  0.66666700  0.33333300  0.40000000  1
  Mo  Mo25  1  0.66666700  0.66666600  0.40000000  1
  Mo  Mo26  1  0.66666700  1.00000000  0.40000000  1
  C  C27  1  0.49548076  0.50801008  0.65585655  1
  H  H28  1  0.56125567  0.62463218  0.73428900  1
  O  O29  1  0.48899860  0.50914184  0.71889685  1
