# generated using pymatgen
data_Ni27H3N
_symmetry_space_group_name_H-M   'P 1'
_cell_length_a   7.33150949
_cell_length_b   7.33150889
_cell_length_c   21.99719400
_cell_angle_alpha   90.00513446
_cell_angle_beta   93.17934504
_cell_angle_gamma   119.99848735
_symmetry_Int_Tables_number   1
_chemical_formula_structural   Ni27H3N
_chemical_formula_sum   'Ni27 H3 N1'
_cell_volume   1021.87426739
_cell_formula_units_Z   1
loop_
 _symmetry_equiv_pos_site_id
 _symmetry_equiv_pos_as_xyz
  1  'x, y, z'
loop_
 _atom_site_type_symbol
 _atom_site_label
 _atom_site_symmetry_multiplicity
 _atom_site_fract_x
 _atom_site_fract_y
 _atom_site_fract_z
 _atom_site_occupancy
  Ni  Ni0  1  0.09090900  0.04545500  0.40909100  1
  Ni  Ni1  1  0.09090900  0.37878800  0.40909100  1
  Ni  Ni2  1  0.09090900  0.71212100  0.40909100  1
  Ni  Ni3  1  0.42424200  0.04545500  0.40909100  1
  Ni  Ni4  1  0.42424200  0.37878800  0.40909100  1
  Ni  Ni5  1  0.42424200  0.71212100  0.40909100  1
  Ni  Ni6  1  0.75757600  0.04545500  0.40909100  1
  Ni  Ni7  1  0.75757600  0.37878800  0.40909100  1
  Ni  Ni8  1  0.75757600  0.71212100  0.40909100  1
  Ni  Ni9  1  0.33321262  0.16673760  0.50013788  1
  Ni  Ni10  1  0.33609819  0.50120738  0.50167344  1
  Ni  Ni11  1  0.33309620  0.83273756  0.50009061  1
  Ni  Ni12  1  0.66643269  0.16642810  0.49987574  1
  Ni  Ni13  1  0.66515417  0.50133277  0.50182058  1
  Ni  Ni14  1  0.66522555  0.83007592  0.50175663  1
  Ni  Ni15  1  0.99934367  0.16628315  0.49988035  1
  Ni  Ni16  1  0.99942911  0.49950849  0.49992687  1
  Ni  Ni17  1  0.99930170  0.83284409  0.50025319  1
  Ni  Ni18  1  0.23900478  0.28429337  0.59092454  1
  Ni  Ni19  1  0.23920167  0.62099143  0.59100005  1
  Ni  Ni20  1  0.24172198  0.95397270  0.59160573  1
  Ni  Ni21  1  0.57453551  0.28508441  0.59115772  1
  Ni  Ni22  1  0.57554538  0.62103822  0.59854383  1
  Ni  Ni23  1  0.57454632  0.95576724  0.59099418  1
  Ni  Ni24  1  0.90812966  0.28709256  0.59136952  1
  Ni  Ni25  1  0.90999553  0.62100204  0.59121140  1
  Ni  Ni26  1  0.90994395  0.95512657  0.59125070  1
  N  N27  1  0.58084627  0.62588370  0.68908156  1
  H  H28  1  0.72807966  0.66802975  0.70871325  1
  H  H29  1  0.54001720  0.73172878  0.70523820  1
  H  H30  1  0.47608661  0.48071491  0.70488748  1
