# generated using pymatgen
data_Mo27HCO
_symmetry_space_group_name_H-M   'P 1'
_cell_length_a   8.13431400
_cell_length_b   8.13432797
_cell_length_c   22.13894100
_cell_angle_alpha   90.00084524
_cell_angle_beta   90.00084525
_cell_angle_gamma   109.47202259
_symmetry_Int_Tables_number   1
_chemical_formula_structural   Mo27HCO
_chemical_formula_sum   'Mo27 H1 C1 O1'
_cell_volume   1381.08702123
_cell_formula_units_Z   1
loop_
 _symmetry_equiv_pos_site_id
 _symmetry_equiv_pos_as_xyz
  1  'x, y, z'
loop_
 _atom_site_type_symbol
 _atom_site_label
 _atom_site_symmetry_multiplicity
 _atom_site_fract_x
 _atom_site_fract_y
 _atom_site_fract_z
 _atom_site_occupancy
  Mo  Mo0  1  0.99887711  0.33209389  0.59575250  1
  Mo  Mo1  1  0.00105608  0.66317338  0.60067455  1
  Mo  Mo2  1  0.99729613  0.00478379  0.59873161  1
  Mo  Mo3  1  0.33128556  0.33233652  0.59287710  1
  Mo  Mo4  1  0.33357258  0.66423258  0.59474153  1
  Mo  Mo5  1  0.33959052  0.99734923  0.59324902  1
  Mo  Mo6  1  0.67093969  0.32829625  0.59407739  1
  Mo  Mo7  1  0.66177847  0.65981367  0.59555522  1
  Mo  Mo8  1  0.67008209  0.99825206  0.59668272  1
  Mo  Mo9  1  0.16488741  0.16542821  0.49706935  1
  Mo  Mo10  1  0.16425438  0.49925974  0.49738761  1
  Mo  Mo11  1  0.16386015  0.83114867  0.49870085  1
  Mo  Mo12  1  0.49911180  0.16276818  0.49783176  1
  Mo  Mo13  1  0.49632882  0.49703500  0.49607116  1
  Mo  Mo14  1  0.49854760  0.83026438  0.49700400  1
  Mo  Mo15  1  0.83255577  0.16433195  0.49722719  1
  Mo  Mo16  1  0.83144585  0.49754648  0.49736974  1
  Mo  Mo17  1  0.83289828  0.83124022  0.49785696  1
  Mo  Mo18  1  0.00000000  0.33333300  0.40000000  1
  Mo  Mo19  1  0.00000000  0.66666600  0.40000000  1
  Mo  Mo20  1  1.00000000  1.00000000  0.40000000  1
  Mo  Mo21  1  0.33333300  0.33333300  0.40000000  1
  Mo  Mo22  1  0.33333300  0.66666600  0.40000000  1
  Mo  Mo23  1  0.33333300  1.00000000  0.40000000  1
  Mo  Mo24  1  0.66666700  0.33333300  0.40000000  1
  Mo  Mo25  1  0.66666700  0.66666600  0.40000000  1
  Mo  Mo26  1  0.66666700  1.00000000  0.40000000  1
  C  C27  1  0.83381730  0.79016548  0.66449825  1
  H  H28  1  0.76068166  0.76879483  0.70776435  1
  O  O29  1  0.01293064  0.84174049  0.67306914  1
