# generated using pymatgen
data_Mo12C(S8O)2
_symmetry_space_group_name_H-M   'P 1'
_cell_length_a   6.40582443
_cell_length_b   6.40502189
_cell_length_c   27.80788600
_cell_angle_alpha   91.26713631
_cell_angle_beta   91.36148131
_cell_angle_gamma   91.33958978
_symmetry_Int_Tables_number   1
_chemical_formula_structural   Mo12C(S8O)2
_chemical_formula_sum   'Mo12 C1 S16 O2'
_cell_volume   1140.01494538
_cell_formula_units_Z   1
loop_
 _symmetry_equiv_pos_site_id
 _symmetry_equiv_pos_as_xyz
  1  'x, y, z'
loop_
 _atom_site_type_symbol
 _atom_site_label
 _atom_site_symmetry_multiplicity
 _atom_site_fract_x
 _atom_site_fract_y
 _atom_site_fract_z
 _atom_site_occupancy
  Mo  Mo0  1  0.21053600  0.55052600  0.34322700  1
  Mo  Mo1  1  0.21877467  0.55498217  0.57391322  1
  Mo  Mo2  1  0.78843392  0.44837470  0.38674747  1
  Mo  Mo3  1  0.79816687  0.44860487  0.61766372  1
  Mo  Mo4  1  0.40788197  0.21391598  0.37670141  1
  Mo  Mo5  1  0.41702863  0.21708192  0.60685590  1
  Mo  Mo6  1  0.59470900  0.78943200  0.35357800  1
  Mo  Mo7  1  0.60340539  0.78666923  0.58429284  1
  Mo  Mo8  1  0.55045000  0.40548900  0.29849800  1
  Mo  Mo9  1  0.55449033  0.40670400  0.52844589  1
  Mo  Mo10  1  0.45224872  0.59521758  0.43185463  1
  Mo  Mo11  1  0.45465966  0.59488095  0.66266241  1
  S  S12  1  0.13342913  0.38752834  0.42007004  1
  S  S13  1  0.13918330  0.38678197  0.64977830  1
  S  S14  1  0.86792400  0.61363500  0.31056000  1
  S  S15  1  0.87469029  0.60939581  0.54060552  1
  S  S16  1  0.73733500  0.13203700  0.33909000  1
  S  S17  1  0.74645174  0.13064834  0.56782099  1
  S  S18  1  0.26317641  0.86912694  0.39157943  1
  S  S19  1  0.27435131  0.87222170  0.62269949  1
  S  S20  1  0.38668300  0.73747600  0.28032400  1
  S  S21  1  0.39234083  0.74105601  0.51101977  1
  S  S22  1  0.61625747  0.26153525  0.44976403  1
  S  S23  1  0.62629775  0.25910797  0.67881554  1
  S  S24  1  0.21767900  0.21800500  0.30009800  1
  S  S25  1  0.22129499  0.22079757  0.53045985  1
  S  S26  1  0.78542322  0.78194360  0.43026572  1
  S  S27  1  0.78837470  0.78037919  0.66187002  1
  C  C28  1  0.43570338  0.54865135  0.74198955  1
  O  O29  1  0.38065593  0.73193746  0.73370756  1
  O  O30  1  0.44844145  0.43354431  0.77595440  1
