# generated using pymatgen
data_Mo12H(S8N)2
_symmetry_space_group_name_H-M   'P 1'
_cell_length_a   6.40582443
_cell_length_b   6.40502189
_cell_length_c   27.80788600
_cell_angle_alpha   91.26713631
_cell_angle_beta   91.36148131
_cell_angle_gamma   91.33958978
_symmetry_Int_Tables_number   1
_chemical_formula_structural   Mo12H(S8N)2
_chemical_formula_sum   'Mo12 H1 S16 N2'
_cell_volume   1140.01494538
_cell_formula_units_Z   1
loop_
 _symmetry_equiv_pos_site_id
 _symmetry_equiv_pos_as_xyz
  1  'x, y, z'
loop_
 _atom_site_type_symbol
 _atom_site_label
 _atom_site_symmetry_multiplicity
 _atom_site_fract_x
 _atom_site_fract_y
 _atom_site_fract_z
 _atom_site_occupancy
  Mo  Mo0  1  0.21053600  0.55052600  0.34322700  1
  Mo  Mo1  1  0.21212863  0.54658993  0.57451035  1
  Mo  Mo2  1  0.78919024  0.44864696  0.38681507  1
  Mo  Mo3  1  0.79214095  0.44162406  0.61879833  1
  Mo  Mo4  1  0.40831237  0.21372841  0.37667647  1
  Mo  Mo5  1  0.40863180  0.20923392  0.60656635  1
  Mo  Mo6  1  0.59470900  0.78943200  0.35357800  1
  Mo  Mo7  1  0.59339142  0.78138070  0.58456277  1
  Mo  Mo8  1  0.55045000  0.40548900  0.29849800  1
  Mo  Mo9  1  0.55017419  0.40079480  0.52890606  1
  Mo  Mo10  1  0.45133398  0.59495024  0.43188970  1
  Mo  Mo11  1  0.45299129  0.58831798  0.66524949  1
  S  S12  1  0.13352709  0.38661230  0.41983914  1
  S  S13  1  0.13389653  0.38156016  0.65129089  1
  S  S14  1  0.86792400  0.61363500  0.31056000  1
  S  S15  1  0.86857852  0.60490300  0.54193408  1
  S  S16  1  0.73733500  0.13203700  0.33909000  1
  S  S17  1  0.73872225  0.12449164  0.56835199  1
  S  S18  1  0.26318465  0.86928729  0.39156342  1
  S  S19  1  0.26510702  0.86290609  0.62387571  1
  S  S20  1  0.38668300  0.73747600  0.28032400  1
  S  S21  1  0.38508199  0.73384950  0.51108877  1
  S  S22  1  0.61634522  0.26201616  0.44994516  1
  S  S23  1  0.61118442  0.24868796  0.67931429  1
  S  S24  1  0.21767900  0.21800500  0.30009800  1
  S  S25  1  0.21650907  0.21565322  0.52963860  1
  S  S26  1  0.78496233  0.78115587  0.43073200  1
  S  S27  1  0.78507742  0.77860525  0.65975292  1
  N  N28  1  0.46305910  0.64352312  0.73231017  1
  N  N29  1  0.46545627  0.66647309  0.77514174  1
  H  H30  1  0.56297941  0.57133157  0.79560947  1
