# generated using pymatgen
data_Ni27H3N
_symmetry_space_group_name_H-M   'P 1'
_cell_length_a   7.33150949
_cell_length_b   7.33150889
_cell_length_c   21.99719400
_cell_angle_alpha   90.00513446
_cell_angle_beta   93.17934504
_cell_angle_gamma   119.99848735
_symmetry_Int_Tables_number   1
_chemical_formula_structural   Ni27H3N
_chemical_formula_sum   'Ni27 H3 N1'
_cell_volume   1021.87426739
_cell_formula_units_Z   1
loop_
 _symmetry_equiv_pos_site_id
 _symmetry_equiv_pos_as_xyz
  1  'x, y, z'
loop_
 _atom_site_type_symbol
 _atom_site_label
 _atom_site_symmetry_multiplicity
 _atom_site_fract_x
 _atom_site_fract_y
 _atom_site_fract_z
 _atom_site_occupancy
  Ni  Ni0  1  0.09090900  0.04545500  0.40909100  1
  Ni  Ni1  1  0.09090900  0.37878800  0.40909100  1
  Ni  Ni2  1  0.09090900  0.71212100  0.40909100  1
  Ni  Ni3  1  0.42424200  0.04545500  0.40909100  1
  Ni  Ni4  1  0.42424200  0.37878800  0.40909100  1
  Ni  Ni5  1  0.42424200  0.71212100  0.40909100  1
  Ni  Ni6  1  0.75757600  0.04545500  0.40909100  1
  Ni  Ni7  1  0.75757600  0.37878800  0.40909100  1
  Ni  Ni8  1  0.75757600  0.71212100  0.40909100  1
  Ni  Ni9  1  0.33303639  0.16666684  0.50017691  1
  Ni  Ni10  1  0.33611261  0.50122791  0.50175650  1
  Ni  Ni11  1  0.33291376  0.83264307  0.50012923  1
  Ni  Ni12  1  0.66627236  0.16637998  0.49998935  1
  Ni  Ni13  1  0.66487654  0.50133091  0.50189672  1
  Ni  Ni14  1  0.66494131  0.82983070  0.50184677  1
  Ni  Ni15  1  0.99918306  0.16623239  0.50000624  1
  Ni  Ni16  1  0.99926866  0.49940721  0.50003326  1
  Ni  Ni17  1  0.99908216  0.83274067  0.50027306  1
  Ni  Ni18  1  0.23898978  0.28439012  0.59101517  1
  Ni  Ni19  1  0.23915936  0.62091725  0.59108877  1
  Ni  Ni20  1  0.24146459  0.95387320  0.59158385  1
  Ni  Ni21  1  0.57429412  0.28511323  0.59123483  1
  Ni  Ni22  1  0.57548426  0.62101071  0.59937308  1
  Ni  Ni23  1  0.57429142  0.95554223  0.59107701  1
  Ni  Ni24  1  0.90791471  0.28699682  0.59143577  1
  Ni  Ni25  1  0.90972345  0.62096108  0.59126657  1
  Ni  Ni26  1  0.90964483  0.95493759  0.59131936  1
  N  N27  1  0.58270820  0.62655288  0.68977110  1
  H  H28  1  0.72991468  0.66891713  0.70916958  1
  H  H29  1  0.54198281  0.73213673  0.70621610  1
  H  H30  1  0.47846238  0.48145947  0.70608818  1
