# generated using pymatgen
data_Mo27H
_symmetry_space_group_name_H-M   'P 1'
_cell_length_a   8.13431400
_cell_length_b   8.13432797
_cell_length_c   22.13894100
_cell_angle_alpha   90.00084524
_cell_angle_beta   90.00084525
_cell_angle_gamma   109.47202259
_symmetry_Int_Tables_number   1
_chemical_formula_structural   Mo27H
_chemical_formula_sum   'Mo27 H1'
_cell_volume   1381.08702123
_cell_formula_units_Z   1
loop_
 _symmetry_equiv_pos_site_id
 _symmetry_equiv_pos_as_xyz
  1  'x, y, z'
loop_
 _atom_site_type_symbol
 _atom_site_label
 _atom_site_symmetry_multiplicity
 _atom_site_fract_x
 _atom_site_fract_y
 _atom_site_fract_z
 _atom_site_occupancy
  Mo  Mo0  1  0.99936425  0.33366804  0.59509003  1
  Mo  Mo1  1  0.00020517  0.66645983  0.59549618  1
  Mo  Mo2  1  0.99893987  0.99893965  0.59447414  1
  Mo  Mo3  1  0.33408094  0.33408082  0.59447777  1
  Mo  Mo4  1  0.33284105  0.66658797  0.59549577  1
  Mo  Mo5  1  0.33366841  0.99936379  0.59508993  1
  Mo  Mo6  1  0.66658828  0.33284074  0.59549583  1
  Mo  Mo7  1  0.66653260  0.66653279  0.59719320  1
  Mo  Mo8  1  0.66646023  0.00020500  0.59549612  1
  Mo  Mo9  1  0.16660567  0.16660549  0.49794540  1
  Mo  Mo10  1  0.16592727  0.50005347  0.49759044  1
  Mo  Mo11  1  0.16729708  0.83315656  0.49758850  1
  Mo  Mo12  1  0.50005359  0.16592706  0.49759043  1
  Mo  Mo13  1  0.49759480  0.49759443  0.49623318  1
  Mo  Mo14  1  0.50029394  0.83292773  0.49768973  1
  Mo  Mo15  1  0.83315680  0.16729688  0.49758854  1
  Mo  Mo16  1  0.83292812  0.50029369  0.49768990  1
  Mo  Mo17  1  0.83561773  0.83561753  0.49623139  1
  Mo  Mo18  1  0.00000000  0.33333300  0.40000000  1
  Mo  Mo19  1  0.00000000  0.66666600  0.40000000  1
  Mo  Mo20  1  1.00000000  1.00000000  0.40000000  1
  Mo  Mo21  1  0.33333300  0.33333300  0.40000000  1
  Mo  Mo22  1  0.33333300  0.66666600  0.40000000  1
  Mo  Mo23  1  0.33333300  1.00000000  0.40000000  1
  Mo  Mo24  1  0.66666700  0.33333300  0.40000000  1
  Mo  Mo25  1  0.66666700  0.66666600  0.40000000  1
  Mo  Mo26  1  0.66666700  1.00000000  0.40000000  1
  H  H27  1  0.66645789  0.66645262  0.67654645  1
