# generated using pymatgen
data_Mo27CO2
_symmetry_space_group_name_H-M   'P 1'
_cell_length_a   8.13431400
_cell_length_b   8.13432797
_cell_length_c   22.13894100
_cell_angle_alpha   90.00084524
_cell_angle_beta   90.00084525
_cell_angle_gamma   109.47202259
_symmetry_Int_Tables_number   1
_chemical_formula_structural   Mo27CO2
_chemical_formula_sum   'Mo27 C1 O2'
_cell_volume   1381.08702123
_cell_formula_units_Z   1
loop_
 _symmetry_equiv_pos_site_id
 _symmetry_equiv_pos_as_xyz
  1  'x, y, z'
loop_
 _atom_site_type_symbol
 _atom_site_label
 _atom_site_symmetry_multiplicity
 _atom_site_fract_x
 _atom_site_fract_y
 _atom_site_fract_z
 _atom_site_occupancy
  Mo  Mo0  1  0.99840924  0.33459531  0.59555577  1
  Mo  Mo1  1  0.00037990  0.66735627  0.59489445  1
  Mo  Mo2  1  0.99983057  0.99984955  0.59360713  1
  Mo  Mo3  1  0.33288149  0.33276520  0.59360515  1
  Mo  Mo4  1  0.33231440  0.66526416  0.59490897  1
  Mo  Mo5  1  0.33428990  0.99802028  0.59556682  1
  Mo  Mo6  1  0.66874692  0.33211469  0.59775751  1
  Mo  Mo7  1  0.66634422  0.66626781  0.59678818  1
  Mo  Mo8  1  0.66395435  0.00049292  0.59782611  1
  Mo  Mo9  1  0.16650405  0.16647700  0.49830547  1
  Mo  Mo10  1  0.16598146  0.50009724  0.49773815  1
  Mo  Mo11  1  0.16705288  0.83287722  0.49773551  1
  Mo  Mo12  1  0.50092657  0.16530558  0.49857268  1
  Mo  Mo13  1  0.49834142  0.49755201  0.49664062  1
  Mo  Mo14  1  0.50070904  0.83240308  0.49800568  1
  Mo  Mo15  1  0.83211173  0.16766123  0.49856572  1
  Mo  Mo16  1  0.83231965  0.50057685  0.49798154  1
  Mo  Mo17  1  0.83465775  0.83541297  0.49666137  1
  Mo  Mo18  1  0.00000000  0.33333300  0.40000000  1
  Mo  Mo19  1  0.00000000  0.66666600  0.40000000  1
  Mo  Mo20  1  1.00000000  1.00000000  0.40000000  1
  Mo  Mo21  1  0.33333300  0.33333300  0.40000000  1
  Mo  Mo22  1  0.33333300  0.66666600  0.40000000  1
  Mo  Mo23  1  0.33333300  1.00000000  0.40000000  1
  Mo  Mo24  1  0.66666700  0.33333300  0.40000000  1
  Mo  Mo25  1  0.66666700  0.66666600  0.40000000  1
  Mo  Mo26  1  0.66666700  1.00000000  0.40000000  1
  C  C27  1  0.66643576  0.66674209  0.69414537  1
  O  O28  1  0.68016201  0.80936289  0.72170950  1
  O  O29  1  0.65277420  0.52429385  0.72195959  1
