# generated using pymatgen
data_Mo12HS16
_symmetry_space_group_name_H-M   'P 1'
_cell_length_a   6.40582443
_cell_length_b   6.40502189
_cell_length_c   27.80788600
_cell_angle_alpha   91.26713631
_cell_angle_beta   91.36148131
_cell_angle_gamma   91.33958978
_symmetry_Int_Tables_number   1
_chemical_formula_structural   Mo12HS16
_chemical_formula_sum   'Mo12 H1 S16'
_cell_volume   1140.01494538
_cell_formula_units_Z   1
loop_
 _symmetry_equiv_pos_site_id
 _symmetry_equiv_pos_as_xyz
  1  'x, y, z'
loop_
 _atom_site_type_symbol
 _atom_site_label
 _atom_site_symmetry_multiplicity
 _atom_site_fract_x
 _atom_site_fract_y
 _atom_site_fract_z
 _atom_site_occupancy
  Mo  Mo0  1  0.21053600  0.55052600  0.34322700  1
  Mo  Mo1  1  0.21954509  0.54744181  0.57523415  1
  Mo  Mo2  1  0.78880435  0.44950512  0.38682861  1
  Mo  Mo3  1  0.78250749  0.44129466  0.61838581  1
  Mo  Mo4  1  0.40767896  0.21476879  0.37664143  1
  Mo  Mo5  1  0.41230146  0.21311724  0.60835641  1
  Mo  Mo6  1  0.59470900  0.78943200  0.35357800  1
  Mo  Mo7  1  0.59692346  0.78185866  0.58543756  1
  Mo  Mo8  1  0.55045000  0.40548900  0.29849800  1
  Mo  Mo9  1  0.55708224  0.40336480  0.52864045  1
  Mo  Mo10  1  0.45270835  0.59697317  0.43268941  1
  Mo  Mo11  1  0.44805285  0.58287259  0.65862709  1
  S  S12  1  0.13338344  0.38827711  0.42025467  1
  S  S13  1  0.13227837  0.37523626  0.65116706  1
  S  S14  1  0.86792400  0.61363500  0.31056000  1
  S  S15  1  0.87429556  0.61002207  0.54160372  1
  S  S16  1  0.73733500  0.13203700  0.33909000  1
  S  S17  1  0.74340593  0.12748848  0.56884742  1
  S  S18  1  0.26325381  0.86922496  0.39170645  1
  S  S19  1  0.26603867  0.86630358  0.62538551  1
  S  S20  1  0.38668300  0.73747600  0.28032400  1
  S  S21  1  0.39342572  0.73669081  0.51225877  1
  S  S22  1  0.61491470  0.26284722  0.44967689  1
  S  S23  1  0.62889877  0.24040811  0.68300041  1
  S  S24  1  0.21767900  0.21800500  0.30009800  1
  S  S25  1  0.22646932  0.21251531  0.53165460  1
  S  S26  1  0.78588924  0.78231534  0.43055399  1
  S  S27  1  0.77618669  0.77027988  0.66405694  1
  H  H28  1  0.53728515  0.39164851  0.71446117  1
