# generated using pymatgen
data_Mo27CO2
_symmetry_space_group_name_H-M   'P 1'
_cell_length_a   8.13431400
_cell_length_b   8.13432797
_cell_length_c   22.13894100
_cell_angle_alpha   90.00084524
_cell_angle_beta   90.00084525
_cell_angle_gamma   109.47202259
_symmetry_Int_Tables_number   1
_chemical_formula_structural   Mo27CO2
_chemical_formula_sum   'Mo27 C1 O2'
_cell_volume   1381.08702123
_cell_formula_units_Z   1
loop_
 _symmetry_equiv_pos_site_id
 _symmetry_equiv_pos_as_xyz
  1  'x, y, z'
loop_
 _atom_site_type_symbol
 _atom_site_label
 _atom_site_symmetry_multiplicity
 _atom_site_fract_x
 _atom_site_fract_y
 _atom_site_fract_z
 _atom_site_occupancy
  Mo  Mo0  1  0.99770578  0.33591713  0.59544905  1
  Mo  Mo1  1  0.00054777  0.66692092  0.59439872  1
  Mo  Mo2  1  0.00037591  0.00010604  0.59341929  1
  Mo  Mo3  1  0.33257395  0.33272091  0.59341779  1
  Mo  Mo4  1  0.33224627  0.66584666  0.59436614  1
  Mo  Mo5  1  0.33519437  0.99684347  0.59543514  1
  Mo  Mo6  1  0.67113142  0.33114132  0.59954599  1
  Mo  Mo7  1  0.66643764  0.66638513  0.59092870  1
  Mo  Mo8  1  0.66176223  0.00148861  0.59971673  1
  Mo  Mo9  1  0.16654648  0.16653758  0.49863362  1
  Mo  Mo10  1  0.16610799  0.49973803  0.49706146  1
  Mo  Mo11  1  0.16699642  0.83334738  0.49706007  1
  Mo  Mo12  1  0.50124407  0.16502040  0.49842641  1
  Mo  Mo13  1  0.49711282  0.49634133  0.49571886  1
  Mo  Mo14  1  0.49963493  0.83384088  0.49717429  1
  Mo  Mo15  1  0.83190007  0.16807232  0.49842008  1
  Mo  Mo16  1  0.83348541  0.49930566  0.49717000  1
  Mo  Mo17  1  0.83597381  0.83678421  0.49573698  1
  Mo  Mo18  1  0.00000000  0.33333300  0.40000000  1
  Mo  Mo19  1  0.00000000  0.66666600  0.40000000  1
  Mo  Mo20  1  1.00000000  1.00000000  0.40000000  1
  Mo  Mo21  1  0.33333300  0.33333300  0.40000000  1
  Mo  Mo22  1  0.33333300  0.66666600  0.40000000  1
  Mo  Mo23  1  0.33333300  1.00000000  0.40000000  1
  Mo  Mo24  1  0.66666700  0.33333300  0.40000000  1
  Mo  Mo25  1  0.66666700  0.66666600  0.40000000  1
  Mo  Mo26  1  0.66666700  1.00000000  0.40000000  1
  C  C27  1  0.66670514  0.66667400  0.68734712  1
  O  O28  1  0.67745993  0.81232196  0.70991622  1
  O  O29  1  0.65567400  0.52173158  0.71070205  1
