# generated using pymatgen
data_Mo27CO
_symmetry_space_group_name_H-M   'P 1'
_cell_length_a   8.13431400
_cell_length_b   8.13432797
_cell_length_c   22.13894100
_cell_angle_alpha   90.00084524
_cell_angle_beta   90.00084525
_cell_angle_gamma   109.47202259
_symmetry_Int_Tables_number   1
_chemical_formula_structural   Mo27CO
_chemical_formula_sum   'Mo27 C1 O1'
_cell_volume   1381.08702123
_cell_formula_units_Z   1
loop_
 _symmetry_equiv_pos_site_id
 _symmetry_equiv_pos_as_xyz
  1  'x, y, z'
loop_
 _atom_site_type_symbol
 _atom_site_label
 _atom_site_symmetry_multiplicity
 _atom_site_fract_x
 _atom_site_fract_y
 _atom_site_fract_z
 _atom_site_occupancy
  Mo  Mo0  1  0.99868027  0.33473608  0.59476816  1
  Mo  Mo1  1  0.00133498  0.66649826  0.59569573  1
  Mo  Mo2  1  0.99891448  0.99880084  0.59408138  1
  Mo  Mo3  1  0.33408589  0.33397032  0.59413924  1
  Mo  Mo4  1  0.33178793  0.66679745  0.59571358  1
  Mo  Mo5  1  0.33477922  0.99863604  0.59477376  1
  Mo  Mo6  1  0.66678917  0.33175489  0.59573566  1
  Mo  Mo7  1  0.66583993  0.66568015  0.59881522  1
  Mo  Mo8  1  0.66649209  0.00130283  0.59566976  1
  Mo  Mo9  1  0.16684107  0.16683611  0.49794068  1
  Mo  Mo10  1  0.16657878  0.50098483  0.49763829  1
  Mo  Mo11  1  0.16697136  0.83249458  0.49761309  1
  Mo  Mo12  1  0.50099273  0.16657083  0.49761578  1
  Mo  Mo13  1  0.49782719  0.49780877  0.49647079  1
  Mo  Mo14  1  0.50038557  0.83326010  0.49763788  1
  Mo  Mo15  1  0.83250290  0.16696351  0.49763401  1
  Mo  Mo16  1  0.83326816  0.50038106  0.49763574  1
  Mo  Mo17  1  0.83582411  0.83580850  0.49633696  1
  Mo  Mo18  1  0.00000000  0.33333300  0.40000000  1
  Mo  Mo19  1  0.00000000  0.66666600  0.40000000  1
  Mo  Mo20  1  1.00000000  1.00000000  0.40000000  1
  Mo  Mo21  1  0.33333300  0.33333300  0.40000000  1
  Mo  Mo22  1  0.33333300  0.66666600  0.40000000  1
  Mo  Mo23  1  0.33333300  1.00000000  0.40000000  1
  Mo  Mo24  1  0.66666700  0.33333300  0.40000000  1
  Mo  Mo25  1  0.66666700  0.66666600  0.40000000  1
  Mo  Mo26  1  0.66666700  1.00000000  0.40000000  1
  O  O27  1  0.65106914  0.65471732  0.74172515  1
  C  C28  1  0.65578109  0.65837135  0.68845100  1
