# generated using pymatgen
data_Ni27HCO
_symmetry_space_group_name_H-M   'P 1'
_cell_length_a   7.33150949
_cell_length_b   7.33150889
_cell_length_c   21.99719400
_cell_angle_alpha   90.00513446
_cell_angle_beta   93.17934504
_cell_angle_gamma   119.99848735
_symmetry_Int_Tables_number   1
_chemical_formula_structural   Ni27HCO
_chemical_formula_sum   'Ni27 H1 C1 O1'
_cell_volume   1021.87426739
_cell_formula_units_Z   1
loop_
 _symmetry_equiv_pos_site_id
 _symmetry_equiv_pos_as_xyz
  1  'x, y, z'
loop_
 _atom_site_type_symbol
 _atom_site_label
 _atom_site_symmetry_multiplicity
 _atom_site_fract_x
 _atom_site_fract_y
 _atom_site_fract_z
 _atom_site_occupancy
  Ni  Ni0  1  0.09090900  0.04545500  0.40909100  1
  Ni  Ni1  1  0.09090900  0.37878800  0.40909100  1
  Ni  Ni2  1  0.09090900  0.71212100  0.40909100  1
  Ni  Ni3  1  0.42424200  0.04545500  0.40909100  1
  Ni  Ni4  1  0.42424200  0.37878800  0.40909100  1
  Ni  Ni5  1  0.42424200  0.71212100  0.40909100  1
  Ni  Ni6  1  0.75757600  0.04545500  0.40909100  1
  Ni  Ni7  1  0.75757600  0.37878800  0.40909100  1
  Ni  Ni8  1  0.75757600  0.71212100  0.40909100  1
  Ni  Ni9  1  0.33908238  0.17241608  0.50174363  1
  Ni  Ni10  1  0.33867541  0.50411764  0.49991985  1
  Ni  Ni11  1  0.33896242  0.83704303  0.50150518  1
  Ni  Ni12  1  0.67214295  0.17105398  0.49957360  1
  Ni  Ni13  1  0.67205340  0.50494505  0.50139202  1
  Ni  Ni14  1  0.67203246  0.83656848  0.50152750  1
  Ni  Ni15  1  0.00793953  0.17226718  0.50171866  1
  Ni  Ni16  1  0.00704884  0.50528091  0.50138216  1
  Ni  Ni17  1  0.00613324  0.83798353  0.50126369  1
  Ni  Ni18  1  0.25430998  0.29729323  0.59779942  1
  Ni  Ni19  1  0.25178370  0.63195723  0.59650067  1
  Ni  Ni20  1  0.25195836  0.96351933  0.59276929  1
  Ni  Ni21  1  0.58780853  0.29414045  0.59226107  1
  Ni  Ni22  1  0.59016560  0.63127554  0.59637212  1
  Ni  Ni23  1  0.58763088  0.96626445  0.59179739  1
  Ni  Ni24  1  0.91556264  0.29423697  0.59187859  1
  Ni  Ni25  1  0.91938205  0.62997300  0.59264486  1
  Ni  Ni26  1  0.92066560  0.96330813  0.59260618  1
  C  C27  1  0.37942087  0.53367915  0.65048089  1
  H  H28  1  0.46819719  0.47905387  0.72977478  1
  O  O29  1  0.39543571  0.55205733  0.71190963  1
