# generated using pymatgen
data_Mo12C(S8O)2
_symmetry_space_group_name_H-M   'P 1'
_cell_length_a   6.40582443
_cell_length_b   6.40502189
_cell_length_c   27.80788600
_cell_angle_alpha   91.26713631
_cell_angle_beta   91.36148131
_cell_angle_gamma   91.33958978
_symmetry_Int_Tables_number   1
_chemical_formula_structural   Mo12C(S8O)2
_chemical_formula_sum   'Mo12 C1 S16 O2'
_cell_volume   1140.01494538
_cell_formula_units_Z   1
loop_
 _symmetry_equiv_pos_site_id
 _symmetry_equiv_pos_as_xyz
  1  'x, y, z'
loop_
 _atom_site_type_symbol
 _atom_site_label
 _atom_site_symmetry_multiplicity
 _atom_site_fract_x
 _atom_site_fract_y
 _atom_site_fract_z
 _atom_site_occupancy
  Mo  Mo0  1  0.21053600  0.55052600  0.34322700  1
  Mo  Mo1  1  0.21587473  0.54416870  0.57285072  1
  Mo  Mo2  1  0.78676211  0.44777619  0.38658726  1
  Mo  Mo3  1  0.79574589  0.43010220  0.61724945  1
  Mo  Mo4  1  0.40761860  0.21302052  0.37670715  1
  Mo  Mo5  1  0.41605407  0.19481307  0.60603374  1
  Mo  Mo6  1  0.59470900  0.78943200  0.35357800  1
  Mo  Mo7  1  0.60047147  0.78007315  0.58299937  1
  Mo  Mo8  1  0.55045000  0.40548900  0.29849800  1
  Mo  Mo9  1  0.55119487  0.39995108  0.52904892  1
  Mo  Mo10  1  0.45086024  0.59298973  0.43147852  1
  Mo  Mo11  1  0.46469434  0.56551471  0.66007009  1
  S  S12  1  0.13224902  0.38497285  0.41996290  1
  S  S13  1  0.14134619  0.37074994  0.64872052  1
  S  S14  1  0.86792400  0.61363500  0.31056000  1
  S  S15  1  0.87220434  0.60242475  0.54110518  1
  S  S16  1  0.73733500  0.13203700  0.33909000  1
  S  S17  1  0.74258009  0.12022691  0.56714907  1
  S  S18  1  0.26305041  0.86823181  0.39163782  1
  S  S19  1  0.27614002  0.85206013  0.62435846  1
  S  S20  1  0.38668300  0.73747600  0.28032400  1
  S  S21  1  0.38713682  0.73693430  0.51078054  1
  S  S22  1  0.61595393  0.25981045  0.44964042  1
  S  S23  1  0.62449206  0.23272311  0.67910978  1
  S  S24  1  0.21767900  0.21800500  0.30009800  1
  S  S25  1  0.21696240  0.20897875  0.53061312  1
  S  S26  1  0.78383927  0.78054538  0.43038680  1
  S  S27  1  0.79175893  0.76644034  0.65897587  1
  C  C28  1  0.43075603  0.62272227  0.73864596  1
  O  O29  1  0.41443061  0.81607896  0.74909325  1
  O  O30  1  0.41882354  0.47845076  0.76927760  1
