# generated using pymatgen
data_Ni27CO
_symmetry_space_group_name_H-M   'P 1'
_cell_length_a   7.33150949
_cell_length_b   7.33150889
_cell_length_c   21.99719400
_cell_angle_alpha   90.00513446
_cell_angle_beta   93.17934504
_cell_angle_gamma   119.99848735
_symmetry_Int_Tables_number   1
_chemical_formula_structural   Ni27CO
_chemical_formula_sum   'Ni27 C1 O1'
_cell_volume   1021.87426739
_cell_formula_units_Z   1
loop_
 _symmetry_equiv_pos_site_id
 _symmetry_equiv_pos_as_xyz
  1  'x, y, z'
loop_
 _atom_site_type_symbol
 _atom_site_label
 _atom_site_symmetry_multiplicity
 _atom_site_fract_x
 _atom_site_fract_y
 _atom_site_fract_z
 _atom_site_occupancy
  Ni  Ni0  1  0.09090900  0.04545500  0.40909100  1
  Ni  Ni1  1  0.09090900  0.37878800  0.40909100  1
  Ni  Ni2  1  0.09090900  0.71212100  0.40909100  1
  Ni  Ni3  1  0.42424200  0.04545500  0.40909100  1
  Ni  Ni4  1  0.42424200  0.37878800  0.40909100  1
  Ni  Ni5  1  0.42424200  0.71212100  0.40909100  1
  Ni  Ni6  1  0.75757600  0.04545500  0.40909100  1
  Ni  Ni7  1  0.75757600  0.37878800  0.40909100  1
  Ni  Ni8  1  0.75757600  0.71212100  0.40909100  1
  Ni  Ni9  1  0.33404209  0.16752315  0.50095231  1
  Ni  Ni10  1  0.33611921  0.50135073  0.50195451  1
  Ni  Ni11  1  0.33399300  0.83321942  0.50090931  1
  Ni  Ni12  1  0.66696977  0.16686710  0.50059410  1
  Ni  Ni13  1  0.66618391  0.50161009  0.50216944  1
  Ni  Ni14  1  0.66614201  0.83103261  0.50220047  1
  Ni  Ni15  1  0.00051006  0.16694492  0.50066070  1
  Ni  Ni16  1  0.00046780  0.50022287  0.50060466  1
  Ni  Ni17  1  0.00008349  0.83334726  0.50083600  1
  Ni  Ni18  1  0.24095937  0.28563022  0.59227175  1
  Ni  Ni19  1  0.24100886  0.62216939  0.59221286  1
  Ni  Ni20  1  0.24319702  0.95496184  0.59221219  1
  Ni  Ni21  1  0.57650848  0.28574357  0.59215241  1
  Ni  Ni22  1  0.57854805  0.62274484  0.60042354  1
  Ni  Ni23  1  0.57642214  0.95740882  0.59209660  1
  Ni  Ni24  1  0.90946328  0.28803431  0.59180931  1
  Ni  Ni25  1  0.91265037  0.62232847  0.59202336  1
  Ni  Ni26  1  0.91257101  0.95703801  0.59204452  1
  O  O27  1  0.56457327  0.61122098  0.73130028  1
  C  C28  1  0.56738219  0.61411698  0.67803912  1
