# generated using pymatgen
data_Ni27HCO
_symmetry_space_group_name_H-M   'P 1'
_cell_length_a   7.33150949
_cell_length_b   7.33150889
_cell_length_c   21.99719400
_cell_angle_alpha   90.00513446
_cell_angle_beta   93.17934504
_cell_angle_gamma   119.99848735
_symmetry_Int_Tables_number   1
_chemical_formula_structural   Ni27HCO
_chemical_formula_sum   'Ni27 H1 C1 O1'
_cell_volume   1021.87426739
_cell_formula_units_Z   1
loop_
 _symmetry_equiv_pos_site_id
 _symmetry_equiv_pos_as_xyz
  1  'x, y, z'
loop_
 _atom_site_type_symbol
 _atom_site_label
 _atom_site_symmetry_multiplicity
 _atom_site_fract_x
 _atom_site_fract_y
 _atom_site_fract_z
 _atom_site_occupancy
  Ni  Ni0  1  0.09090900  0.04545500  0.40909100  1
  Ni  Ni1  1  0.09090900  0.37878800  0.40909100  1
  Ni  Ni2  1  0.09090900  0.71212100  0.40909100  1
  Ni  Ni3  1  0.42424200  0.04545500  0.40909100  1
  Ni  Ni4  1  0.42424200  0.37878800  0.40909100  1
  Ni  Ni5  1  0.42424200  0.71212100  0.40909100  1
  Ni  Ni6  1  0.75757600  0.04545500  0.40909100  1
  Ni  Ni7  1  0.75757600  0.37878800  0.40909100  1
  Ni  Ni8  1  0.75757600  0.71212100  0.40909100  1
  Ni  Ni9  1  0.33796984  0.17161731  0.50149643  1
  Ni  Ni10  1  0.33788342  0.50370060  0.49968003  1
  Ni  Ni11  1  0.33788479  0.83596787  0.50156806  1
  Ni  Ni12  1  0.67136593  0.17036244  0.49963265  1
  Ni  Ni13  1  0.67137331  0.50467867  0.50122713  1
  Ni  Ni14  1  0.67126568  0.83601100  0.50146208  1
  Ni  Ni15  1  0.00681795  0.17155831  0.50149630  1
  Ni  Ni16  1  0.00633790  0.50480588  0.50133799  1
  Ni  Ni17  1  0.00514781  0.83741558  0.50120819  1
  Ni  Ni18  1  0.25257650  0.29592812  0.59680350  1
  Ni  Ni19  1  0.25072560  0.62963072  0.59659922  1
  Ni  Ni20  1  0.25059356  0.96200150  0.59256268  1
  Ni  Ni21  1  0.58623013  0.29320029  0.59167277  1
  Ni  Ni22  1  0.58900982  0.63013030  0.59613384  1
  Ni  Ni23  1  0.58614271  0.96496374  0.59183359  1
  Ni  Ni24  1  0.91420984  0.29323323  0.59182149  1
  Ni  Ni25  1  0.91856200  0.62899779  0.59259770  1
  Ni  Ni26  1  0.91931835  0.96222646  0.59254663  1
  C  C27  1  0.38011191  0.53113094  0.65063622  1
  H  H28  1  0.50606256  0.51856149  0.72902360  1
  O  O29  1  0.39126695  0.54066844  0.71146323  1
