# generated using pymatgen
data_Mo27HN2
_symmetry_space_group_name_H-M   'P 1'
_cell_length_a   8.13431400
_cell_length_b   8.13432797
_cell_length_c   22.13894100
_cell_angle_alpha   90.00084524
_cell_angle_beta   90.00084525
_cell_angle_gamma   109.47202259
_symmetry_Int_Tables_number   1
_chemical_formula_structural   Mo27HN2
_chemical_formula_sum   'Mo27 H1 N2'
_cell_volume   1381.08702123
_cell_formula_units_Z   1
loop_
 _symmetry_equiv_pos_site_id
 _symmetry_equiv_pos_as_xyz
  1  'x, y, z'
loop_
 _atom_site_type_symbol
 _atom_site_label
 _atom_site_symmetry_multiplicity
 _atom_site_fract_x
 _atom_site_fract_y
 _atom_site_fract_z
 _atom_site_occupancy
  Mo  Mo0  1  0.99796074  0.33453249  0.59474321  1
  Mo  Mo1  1  0.00170767  0.66620941  0.59530469  1
  Mo  Mo2  1  0.99993825  0.99961930  0.59375301  1
  Mo  Mo3  1  0.33380964  0.33357188  0.59390751  1
  Mo  Mo4  1  0.33112765  0.66635492  0.59516320  1
  Mo  Mo5  1  0.33495155  0.99797542  0.59476881  1
  Mo  Mo6  1  0.66614927  0.33134814  0.59531719  1
  Mo  Mo7  1  0.66747408  0.66687841  0.60314816  1
  Mo  Mo8  1  0.66654097  0.00182991  0.59506695  1
  Mo  Mo9  1  0.16638892  0.16638596  0.49770341  1
  Mo  Mo10  1  0.16646958  0.50034012  0.49756244  1
  Mo  Mo11  1  0.16655441  0.83255641  0.49747433  1
  Mo  Mo12  1  0.50035375  0.16645320  0.49745876  1
  Mo  Mo13  1  0.49831785  0.49826524  0.49673975  1
  Mo  Mo14  1  0.50017695  0.83257668  0.49764726  1
  Mo  Mo15  1  0.83259278  0.16644864  0.49750783  1
  Mo  Mo16  1  0.83272328  0.50016753  0.49766222  1
  Mo  Mo17  1  0.83452322  0.83439159  0.49687487  1
  Mo  Mo18  1  0.00000000  0.33333300  0.40000000  1
  Mo  Mo19  1  0.00000000  0.66666600  0.40000000  1
  Mo  Mo20  1  1.00000000  1.00000000  0.40000000  1
  Mo  Mo21  1  0.33333300  0.33333300  0.40000000  1
  Mo  Mo22  1  0.33333300  0.66666600  0.40000000  1
  Mo  Mo23  1  0.33333300  1.00000000  0.40000000  1
  Mo  Mo24  1  0.66666700  0.33333300  0.40000000  1
  Mo  Mo25  1  0.66666700  0.66666600  0.40000000  1
  Mo  Mo26  1  0.66666700  1.00000000  0.40000000  1
  N  N27  1  0.67178050  0.67817753  0.68806713  1
  N  N28  1  0.66659799  0.69357870  0.74256276  1
  H  H29  1  0.74464682  0.63970190  0.76760731  1
