# generated using pymatgen
data_Mo12C(S8O)2
_symmetry_space_group_name_H-M   'P 1'
_cell_length_a   6.40582443
_cell_length_b   6.40502189
_cell_length_c   27.80788600
_cell_angle_alpha   91.26713631
_cell_angle_beta   91.36148131
_cell_angle_gamma   91.33958978
_symmetry_Int_Tables_number   1
_chemical_formula_structural   Mo12C(S8O)2
_chemical_formula_sum   'Mo12 C1 S16 O2'
_cell_volume   1140.01494538
_cell_formula_units_Z   1
loop_
 _symmetry_equiv_pos_site_id
 _symmetry_equiv_pos_as_xyz
  1  'x, y, z'
loop_
 _atom_site_type_symbol
 _atom_site_label
 _atom_site_symmetry_multiplicity
 _atom_site_fract_x
 _atom_site_fract_y
 _atom_site_fract_z
 _atom_site_occupancy
  Mo  Mo0  1  0.21053600  0.55052600  0.34322700  1
  Mo  Mo1  1  0.21544672  0.55747000  0.57168139  1
  Mo  Mo2  1  0.79045941  0.44790034  0.38673642  1
  Mo  Mo3  1  0.79792694  0.44705120  0.61607326  1
  Mo  Mo4  1  0.40882156  0.21315118  0.37652948  1
  Mo  Mo5  1  0.41744309  0.21507749  0.60503686  1
  Mo  Mo6  1  0.59470900  0.78943200  0.35357800  1
  Mo  Mo7  1  0.59923262  0.79227717  0.58140275  1
  Mo  Mo8  1  0.55045000  0.40548900  0.29849800  1
  Mo  Mo9  1  0.55341141  0.41048852  0.52755681  1
  Mo  Mo10  1  0.45353824  0.59452959  0.43098698  1
  Mo  Mo11  1  0.46551283  0.58691574  0.65584042  1
  S  S12  1  0.13468192  0.38668215  0.41978418  1
  S  S13  1  0.14251855  0.38750702  0.64748394  1
  S  S14  1  0.86792400  0.61363500  0.31056000  1
  S  S15  1  0.87224432  0.61568259  0.53925864  1
  S  S16  1  0.73733500  0.13203700  0.33909000  1
  S  S17  1  0.74716974  0.13407036  0.56720510  1
  S  S18  1  0.26284391  0.86955687  0.39113126  1
  S  S19  1  0.27350727  0.87236650  0.62186154  1
  S  S20  1  0.38668300  0.73747600  0.28032400  1
  S  S21  1  0.38700572  0.74572919  0.50910289  1
  S  S22  1  0.61786817  0.26110399  0.44958031  1
  S  S23  1  0.62428574  0.26174079  0.67996270  1
  S  S24  1  0.21767900  0.21800500  0.30009800  1
  S  S25  1  0.21845089  0.22221956  0.52968954  1
  S  S26  1  0.78789437  0.78119429  0.42997743  1
  S  S27  1  0.79321593  0.78219680  0.65743943  1
  C  C28  1  0.42021207  0.56475793  0.76518579  1
  O  O29  1  0.41995474  0.70048598  0.73698936  1
  O  O30  1  0.41926951  0.43182517  0.79293889  1
