# generated using pymatgen
data_Mo12H3S16N
_symmetry_space_group_name_H-M   'P 1'
_cell_length_a   6.40582443
_cell_length_b   6.40502189
_cell_length_c   27.80788600
_cell_angle_alpha   91.26713631
_cell_angle_beta   91.36148131
_cell_angle_gamma   91.33958978
_symmetry_Int_Tables_number   1
_chemical_formula_structural   Mo12H3S16N
_chemical_formula_sum   'Mo12 H3 S16 N1'
_cell_volume   1140.01494538
_cell_formula_units_Z   1
loop_
 _symmetry_equiv_pos_site_id
 _symmetry_equiv_pos_as_xyz
  1  'x, y, z'
loop_
 _atom_site_type_symbol
 _atom_site_label
 _atom_site_symmetry_multiplicity
 _atom_site_fract_x
 _atom_site_fract_y
 _atom_site_fract_z
 _atom_site_occupancy
  Mo  Mo0  1  0.21053600  0.55052600  0.34322700  1
  Mo  Mo1  1  0.21699046  0.54418634  0.57332767  1
  Mo  Mo2  1  0.78944068  0.44795401  0.38681159  1
  Mo  Mo3  1  0.79666426  0.43077108  0.61732519  1
  Mo  Mo4  1  0.40852271  0.21288222  0.37663386  1
  Mo  Mo5  1  0.41691264  0.19651510  0.60606576  1
  Mo  Mo6  1  0.59470900  0.78943200  0.35357800  1
  Mo  Mo7  1  0.59889758  0.77985578  0.58322983  1
  Mo  Mo8  1  0.55045000  0.40548900  0.29849800  1
  Mo  Mo9  1  0.55242951  0.40057951  0.52876675  1
  Mo  Mo10  1  0.45309180  0.59397874  0.43164236  1
  Mo  Mo11  1  0.46626014  0.56520533  0.65906089  1
  S  S12  1  0.13413079  0.38642267  0.41981194  1
  S  S13  1  0.14156795  0.37009051  0.64842152  1
  S  S14  1  0.86792400  0.61363500  0.31056000  1
  S  S15  1  0.87264935  0.60407097  0.54117553  1
  S  S16  1  0.73733500  0.13203700  0.33909000  1
  S  S17  1  0.74452342  0.12079213  0.56739549  1
  S  S18  1  0.26349382  0.86890479  0.39154037  1
  S  S19  1  0.27727538  0.85435578  0.62488429  1
  S  S20  1  0.38668300  0.73747600  0.28032400  1
  S  S21  1  0.38694824  0.73669141  0.51074971  1
  S  S22  1  0.61699555  0.26017866  0.44973197  1
  S  S23  1  0.62528279  0.23582059  0.68008082  1
  S  S24  1  0.21767900  0.21800500  0.30009800  1
  S  S25  1  0.21858730  0.20923365  0.53064480  1
  S  S26  1  0.78643674  0.78093605  0.43037537  1
  S  S27  1  0.79168969  0.76710369  0.65910573  1
  N  N28  1  0.43052663  0.62891092  0.73799408  1
  H  H29  1  0.57269230  0.66327204  0.75472792  1
  H  H30  1  0.33428354  0.75054050  0.74599023  1
  H  H31  1  0.37029773  0.49939301  0.75467203  1
