# generated using pymatgen
data_Mo27H3N
_symmetry_space_group_name_H-M   'P 1'
_cell_length_a   8.13431400
_cell_length_b   8.13432797
_cell_length_c   22.13894100
_cell_angle_alpha   90.00084524
_cell_angle_beta   90.00084525
_cell_angle_gamma   109.47202259
_symmetry_Int_Tables_number   1
_chemical_formula_structural   Mo27H3N
_chemical_formula_sum   'Mo27 H3 N1'
_cell_volume   1381.08702123
_cell_formula_units_Z   1
loop_
 _symmetry_equiv_pos_site_id
 _symmetry_equiv_pos_as_xyz
  1  'x, y, z'
loop_
 _atom_site_type_symbol
 _atom_site_label
 _atom_site_symmetry_multiplicity
 _atom_site_fract_x
 _atom_site_fract_y
 _atom_site_fract_z
 _atom_site_occupancy
  Mo  Mo0  1  0.99911193  0.33363166  0.59473758  1
  Mo  Mo1  1  0.00075907  0.66824019  0.59408178  1
  Mo  Mo2  1  0.00017443  0.00000224  0.59431119  1
  Mo  Mo3  1  0.33257055  0.33241238  0.59424204  1
  Mo  Mo4  1  0.33186617  0.66438589  0.59410397  1
  Mo  Mo5  1  0.33388361  0.99886783  0.59473333  1
  Mo  Mo6  1  0.66446439  0.33202434  0.59413195  1
  Mo  Mo7  1  0.66613603  0.66635046  0.60221336  1
  Mo  Mo8  1  0.66834707  0.00093110  0.59405020  1
  Mo  Mo9  1  0.16650492  0.16653657  0.49721226  1
  Mo  Mo10  1  0.16598645  0.49989827  0.49725197  1
  Mo  Mo11  1  0.16710713  0.83312355  0.49723390  1
  Mo  Mo12  1  0.49990449  0.16594364  0.49721846  1
  Mo  Mo13  1  0.49916133  0.49911247  0.49709584  1
  Mo  Mo14  1  0.50133749  0.83171450  0.49764619  1
  Mo  Mo15  1  0.83313314  0.16706241  0.49726765  1
  Mo  Mo16  1  0.83173412  0.50131817  0.49765226  1
  Mo  Mo17  1  0.83394474  0.83389192  0.49708445  1
  Mo  Mo18  1  0.00000000  0.33333300  0.40000000  1
  Mo  Mo19  1  0.00000000  0.66666600  0.40000000  1
  Mo  Mo20  1  1.00000000  1.00000000  0.40000000  1
  Mo  Mo21  1  0.33333300  0.33333300  0.40000000  1
  Mo  Mo22  1  0.33333300  0.66666600  0.40000000  1
  Mo  Mo23  1  0.33333300  1.00000000  0.40000000  1
  Mo  Mo24  1  0.66666700  0.33333300  0.40000000  1
  Mo  Mo25  1  0.66666700  0.66666600  0.40000000  1
  Mo  Mo26  1  0.66666700  1.00000000  0.40000000  1
  N  N27  1  0.66297451  0.66651624  0.70384668  1
  H  H28  1  0.78606426  0.70103735  0.72233963  1
  H  H29  1  0.60735518  0.75353817  0.72086023  1
  H  H30  1  0.59279217  0.54662820  0.72164486  1
