# generated using pymatgen
data_Ni27HO2
_symmetry_space_group_name_H-M   'P 1'
_cell_length_a   7.33150949
_cell_length_b   7.33150889
_cell_length_c   21.99719400
_cell_angle_alpha   90.00513446
_cell_angle_beta   93.17934504
_cell_angle_gamma   119.99848735
_symmetry_Int_Tables_number   1
_chemical_formula_structural   Ni27HO2
_chemical_formula_sum   'Ni27 H1 O2'
_cell_volume   1021.87426739
_cell_formula_units_Z   1
loop_
 _symmetry_equiv_pos_site_id
 _symmetry_equiv_pos_as_xyz
  1  'x, y, z'
loop_
 _atom_site_type_symbol
 _atom_site_label
 _atom_site_symmetry_multiplicity
 _atom_site_fract_x
 _atom_site_fract_y
 _atom_site_fract_z
 _atom_site_occupancy
  Ni  Ni0  1  0.09090900  0.04545500  0.40909100  1
  Ni  Ni1  1  0.09090900  0.37878800  0.40909100  1
  Ni  Ni2  1  0.09090900  0.71212100  0.40909100  1
  Ni  Ni3  1  0.42424200  0.04545500  0.40909100  1
  Ni  Ni4  1  0.42424200  0.37878800  0.40909100  1
  Ni  Ni5  1  0.42424200  0.71212100  0.40909100  1
  Ni  Ni6  1  0.75757600  0.04545500  0.40909100  1
  Ni  Ni7  1  0.75757600  0.37878800  0.40909100  1
  Ni  Ni8  1  0.75757600  0.71212100  0.40909100  1
  Ni  Ni9  1  0.33418534  0.16707367  0.50019129  1
  Ni  Ni10  1  0.33609819  0.50116759  0.50149055  1
  Ni  Ni11  1  0.33384332  0.83234859  0.50058878  1
  Ni  Ni12  1  0.66727854  0.16684158  0.49956684  1
  Ni  Ni13  1  0.66627715  0.50191989  0.50196460  1
  Ni  Ni14  1  0.66606621  0.83012718  0.50179592  1
  Ni  Ni15  1  0.00031532  0.16639812  0.50003199  1
  Ni  Ni16  1  0.00180747  0.50048136  0.50122585  1
  Ni  Ni17  1  0.00005404  0.83291019  0.50011037  1
  Ni  Ni18  1  0.23980031  0.28233413  0.59126164  1
  Ni  Ni19  1  0.24402331  0.62128026  0.59322834  1
  Ni  Ni20  1  0.24323895  0.95335514  0.59144748  1
  Ni  Ni21  1  0.57690336  0.28465979  0.59129067  1
  Ni  Ni22  1  0.57965822  0.62051354  0.59791353  1
  Ni  Ni23  1  0.57749998  0.95652908  0.59106698  1
  Ni  Ni24  1  0.90919364  0.28595530  0.59149765  1
  Ni  Ni25  1  0.91240710  0.62152355  0.59168227  1
  Ni  Ni26  1  0.91161374  0.95469103  0.59154894  1
  O  O27  1  0.49465276  0.57993046  0.67725985  1
  O  O28  1  0.66487211  0.71472462  0.72540473  1
  H  H29  1  0.69898093  0.85769334  0.71300425  1
