# generated using pymatgen
data_Mo27HCO
_symmetry_space_group_name_H-M   'P 1'
_cell_length_a   8.13431400
_cell_length_b   8.13432797
_cell_length_c   22.13894100
_cell_angle_alpha   90.00084524
_cell_angle_beta   90.00084525
_cell_angle_gamma   109.47202259
_symmetry_Int_Tables_number   1
_chemical_formula_structural   Mo27HCO
_chemical_formula_sum   'Mo27 H1 C1 O1'
_cell_volume   1381.08702123
_cell_formula_units_Z   1
loop_
 _symmetry_equiv_pos_site_id
 _symmetry_equiv_pos_as_xyz
  1  'x, y, z'
loop_
 _atom_site_type_symbol
 _atom_site_label
 _atom_site_symmetry_multiplicity
 _atom_site_fract_x
 _atom_site_fract_y
 _atom_site_fract_z
 _atom_site_occupancy
  Mo  Mo0  1  0.99713751  0.33686332  0.59489145  1
  Mo  Mo1  1  0.00330572  0.66577541  0.59506285  1
  Mo  Mo2  1  0.00091627  0.00104147  0.59228320  1
  Mo  Mo3  1  0.32871051  0.33023067  0.59634792  1
  Mo  Mo4  1  0.33862202  0.66334325  0.59788839  1
  Mo  Mo5  1  0.33569953  0.99888212  0.59518640  1
  Mo  Mo6  1  0.66150470  0.34035792  0.59863646  1
  Mo  Mo7  1  0.67251129  0.67309615  0.59574354  1
  Mo  Mo8  1  0.66487123  0.00456395  0.59482704  1
  Mo  Mo9  1  0.16506747  0.16543163  0.49573995  1
  Mo  Mo10  1  0.16691402  0.50032946  0.49772645  1
  Mo  Mo11  1  0.16822394  0.83306047  0.49750046  1
  Mo  Mo12  1  0.49987512  0.16785594  0.49795887  1
  Mo  Mo13  1  0.50022199  0.50075362  0.49679543  1
  Mo  Mo14  1  0.50042282  0.83432200  0.49779377  1
  Mo  Mo15  1  0.83205462  0.16890882  0.49772031  1
  Mo  Mo16  1  0.83347001  0.50133512  0.49776829  1
  Mo  Mo17  1  0.83561386  0.83630901  0.49562518  1
  Mo  Mo18  1  0.00000000  0.33333300  0.40000000  1
  Mo  Mo19  1  0.00000000  0.66666600  0.40000000  1
  Mo  Mo20  1  1.00000000  1.00000000  0.40000000  1
  Mo  Mo21  1  0.33333300  0.33333300  0.40000000  1
  Mo  Mo22  1  0.33333300  0.66666600  0.40000000  1
  Mo  Mo23  1  0.33333300  1.00000000  0.40000000  1
  Mo  Mo24  1  0.66666700  0.33333300  0.40000000  1
  Mo  Mo25  1  0.66666700  0.66666600  0.40000000  1
  Mo  Mo26  1  0.66666700  1.00000000  0.40000000  1
  C  C27  1  0.49482504  0.50953899  0.65630007  1
  H  H28  1  0.53931017  0.62329713  0.73541706  1
  O  O29  1  0.48565048  0.50544752  0.71751336  1
