# generated using pymatgen
data_Mo12CS16O
_symmetry_space_group_name_H-M   'P 1'
_cell_length_a   6.40582443
_cell_length_b   6.40502189
_cell_length_c   27.80788600
_cell_angle_alpha   91.26713631
_cell_angle_beta   91.36148131
_cell_angle_gamma   91.33958978
_symmetry_Int_Tables_number   1
_chemical_formula_structural   Mo12CS16O
_chemical_formula_sum   'Mo12 C1 S16 O1'
_cell_volume   1140.01494538
_cell_formula_units_Z   1
loop_
 _symmetry_equiv_pos_site_id
 _symmetry_equiv_pos_as_xyz
  1  'x, y, z'
loop_
 _atom_site_type_symbol
 _atom_site_label
 _atom_site_symmetry_multiplicity
 _atom_site_fract_x
 _atom_site_fract_y
 _atom_site_fract_z
 _atom_site_occupancy
  Mo  Mo0  1  0.21053600  0.55052600  0.34322700  1
  Mo  Mo1  1  0.21069762  0.55181939  0.57320425  1
  Mo  Mo2  1  0.78807160  0.44835269  0.38678738  1
  Mo  Mo3  1  0.79068579  0.44093320  0.61736299  1
  Mo  Mo4  1  0.40787134  0.21354150  0.37668332  1
  Mo  Mo5  1  0.41266578  0.20739467  0.60629542  1
  Mo  Mo6  1  0.59470900  0.78943200  0.35357800  1
  Mo  Mo7  1  0.59526593  0.78525195  0.58381178  1
  Mo  Mo8  1  0.55045000  0.40548900  0.29849800  1
  Mo  Mo9  1  0.54858350  0.40515136  0.52867865  1
  Mo  Mo10  1  0.45104459  0.59483140  0.43168005  1
  Mo  Mo11  1  0.45117505  0.57737673  0.66085775  1
  S  S12  1  0.13305550  0.38641628  0.41994004  1
  S  S13  1  0.13374425  0.37638629  0.64808414  1
  S  S14  1  0.86792400  0.61363500  0.31056000  1
  S  S15  1  0.86775594  0.60871707  0.54068201  1
  S  S16  1  0.73733500  0.13203700  0.33909000  1
  S  S17  1  0.74107389  0.12726647  0.56753388  1
  S  S18  1  0.26285267  0.86920138  0.39140745  1
  S  S19  1  0.26997202  0.86425137  0.62390009  1
  S  S20  1  0.38668300  0.73747600  0.28032400  1
  S  S21  1  0.38549958  0.73982181  0.51048443  1
  S  S22  1  0.61552373  0.26205003  0.44989970  1
  S  S23  1  0.61972856  0.24918433  0.68020410  1
  S  S24  1  0.21767900  0.21800500  0.30009800  1
  S  S25  1  0.21548174  0.21717171  0.53017243  1
  S  S26  1  0.78478626  0.78151619  0.43043165  1
  S  S27  1  0.78272308  0.77326684  0.66038637  1
  O  O28  1  0.43445969  0.61412119  0.77498534  1
  C  C29  1  0.43707517  0.61214197  0.73302787  1
