# generated using pymatgen
data_Ni27CO2
_symmetry_space_group_name_H-M   'P 1'
_cell_length_a   7.33150949
_cell_length_b   7.33150889
_cell_length_c   21.99719400
_cell_angle_alpha   90.00513446
_cell_angle_beta   93.17934504
_cell_angle_gamma   119.99848735
_symmetry_Int_Tables_number   1
_chemical_formula_structural   Ni27CO2
_chemical_formula_sum   'Ni27 C1 O2'
_cell_volume   1021.87426739
_cell_formula_units_Z   1
loop_
 _symmetry_equiv_pos_site_id
 _symmetry_equiv_pos_as_xyz
  1  'x, y, z'
loop_
 _atom_site_type_symbol
 _atom_site_label
 _atom_site_symmetry_multiplicity
 _atom_site_fract_x
 _atom_site_fract_y
 _atom_site_fract_z
 _atom_site_occupancy
  Ni  Ni0  1  0.09090900  0.04545500  0.40909100  1
  Ni  Ni1  1  0.09090900  0.37878800  0.40909100  1
  Ni  Ni2  1  0.09090900  0.71212100  0.40909100  1
  Ni  Ni3  1  0.42424200  0.04545500  0.40909100  1
  Ni  Ni4  1  0.42424200  0.37878800  0.40909100  1
  Ni  Ni5  1  0.42424200  0.71212100  0.40909100  1
  Ni  Ni6  1  0.75757600  0.04545500  0.40909100  1
  Ni  Ni7  1  0.75757600  0.37878800  0.40909100  1
  Ni  Ni8  1  0.75757600  0.71212100  0.40909100  1
  Ni  Ni9  1  0.33368343  0.16726965  0.50047095  1
  Ni  Ni10  1  0.33542902  0.50078741  0.50118871  1
  Ni  Ni11  1  0.33407365  0.83314846  0.50028289  1
  Ni  Ni12  1  0.66664694  0.16655429  0.50077361  1
  Ni  Ni13  1  0.66610288  0.50083691  0.50114150  1
  Ni  Ni14  1  0.66610728  0.83145865  0.50081079  1
  Ni  Ni15  1  0.00085834  0.16697762  0.50097216  1
  Ni  Ni16  1  0.00003544  0.49998498  0.49993303  1
  Ni  Ni17  1  0.99949338  0.83308600  0.50024958  1
  Ni  Ni18  1  0.24261720  0.28732703  0.59237563  1
  Ni  Ni19  1  0.24097745  0.62147986  0.59135523  1
  Ni  Ni20  1  0.24213228  0.95368355  0.59125588  1
  Ni  Ni21  1  0.57608712  0.28729648  0.59182912  1
  Ni  Ni22  1  0.57707489  0.62252177  0.59648686  1
  Ni  Ni23  1  0.57598353  0.95503380  0.59181262  1
  Ni  Ni24  1  0.90956545  0.28884945  0.59150845  1
  Ni  Ni25  1  0.91024521  0.62156183  0.59147342  1
  Ni  Ni26  1  0.91017316  0.95487262  0.59165591  1
  C  C27  1  0.57922383  0.62422402  0.68527404  1
  O  O28  1  0.67137080  0.80465019  0.70842499  1
  O  O29  1  0.48803724  0.44256685  0.70475025  1
