# generated using pymatgen
data_HRh27
_symmetry_space_group_name_H-M   'P 1'
_cell_length_a   8.03672266
_cell_length_b   8.03669826
_cell_length_c   21.92791400
_cell_angle_alpha   86.49772645
_cell_angle_beta   86.49795137
_cell_angle_gamma   59.99991575
_symmetry_Int_Tables_number   1
_chemical_formula_structural   HRh27
_chemical_formula_sum   'H1 Rh27'
_cell_volume   1223.49202859
_cell_formula_units_Z   1
loop_
 _symmetry_equiv_pos_site_id
 _symmetry_equiv_pos_as_xyz
  1  'x, y, z'
loop_
 _atom_site_type_symbol
 _atom_site_label
 _atom_site_symmetry_multiplicity
 _atom_site_fract_x
 _atom_site_fract_y
 _atom_site_fract_z
 _atom_site_occupancy
  Rh  Rh0  1  0.06666700  0.06666700  0.40000000  1
  Rh  Rh1  1  0.06666700  0.40000000  0.40000000  1
  Rh  Rh2  1  0.06666700  0.73333300  0.40000000  1
  Rh  Rh3  1  0.40000000  0.06666700  0.40000000  1
  Rh  Rh4  1  0.40000000  0.40000000  0.40000000  1
  Rh  Rh5  1  0.40000000  0.73333300  0.40000000  1
  Rh  Rh6  1  0.73333300  0.06666700  0.40000000  1
  Rh  Rh7  1  0.73333300  0.40000000  0.40000000  1
  Rh  Rh8  1  0.73333300  0.73333300  0.40000000  1
  Rh  Rh9  1  0.16692856  0.16692704  0.49846659  1
  Rh  Rh10  1  0.16723505  0.50045672  0.49857561  1
  Rh  Rh11  1  0.16713689  0.83308557  0.49859074  1
  Rh  Rh12  1  0.50045826  0.16723358  0.49857564  1
  Rh  Rh13  1  0.50029319  0.50029179  0.49865440  1
  Rh  Rh14  1  0.50042790  0.83320461  0.49853991  1
  Rh  Rh15  1  0.83308703  0.16713547  0.49859073  1
  Rh  Rh16  1  0.83320606  0.50042643  0.49853988  1
  Rh  Rh17  1  0.83362370  0.83362223  0.49817856  1
  Rh  Rh18  1  0.26624931  0.26624587  0.59674898  1
  Rh  Rh19  1  0.26285403  0.60244343  0.59853269  1
  Rh  Rh20  1  0.26619624  0.93583165  0.59672690  1
  Rh  Rh21  1  0.60244669  0.26285100  0.59853268  1
  Rh  Rh22  1  0.60285620  0.60285274  0.59846583  1
  Rh  Rh23  1  0.60062170  0.93397366  0.59692243  1
  Rh  Rh24  1  0.93583505  0.26619295  0.59672684  1
  Rh  Rh25  1  0.93397689  0.60061842  0.59692243  1
  Rh  Rh26  1  0.93374692  0.93374374  0.59694102  1
  H  H27  1  0.48549535  0.48549270  0.64195913  1
