# generated using pymatgen
data_Mo12HS16
_symmetry_space_group_name_H-M   'P 1'
_cell_length_a   6.40582443
_cell_length_b   6.40502189
_cell_length_c   27.80788600
_cell_angle_alpha   91.26713631
_cell_angle_beta   91.36148131
_cell_angle_gamma   91.33958978
_symmetry_Int_Tables_number   1
_chemical_formula_structural   Mo12HS16
_chemical_formula_sum   'Mo12 H1 S16'
_cell_volume   1140.01494538
_cell_formula_units_Z   1
loop_
 _symmetry_equiv_pos_site_id
 _symmetry_equiv_pos_as_xyz
  1  'x, y, z'
loop_
 _atom_site_type_symbol
 _atom_site_label
 _atom_site_symmetry_multiplicity
 _atom_site_fract_x
 _atom_site_fract_y
 _atom_site_fract_z
 _atom_site_occupancy
  Mo  Mo0  1  0.21053600  0.55052600  0.34322700  1
  Mo  Mo1  1  0.21942342  0.54866905  0.57492084  1
  Mo  Mo2  1  0.78914661  0.44943651  0.38684707  1
  Mo  Mo3  1  0.78365168  0.44236027  0.61850345  1
  Mo  Mo4  1  0.40772355  0.21461254  0.37662248  1
  Mo  Mo5  1  0.41287713  0.21443523  0.60828795  1
  Mo  Mo6  1  0.59470900  0.78943200  0.35357800  1
  Mo  Mo7  1  0.59791689  0.78293793  0.58530351  1
  Mo  Mo8  1  0.55045000  0.40548900  0.29849800  1
  Mo  Mo9  1  0.55749976  0.40379168  0.52856947  1
  Mo  Mo10  1  0.45305977  0.59701085  0.43259870  1
  Mo  Mo11  1  0.44925680  0.58525299  0.65862585  1
  S  S12  1  0.13368935  0.38842957  0.42023061  1
  S  S13  1  0.13347012  0.37823231  0.65087523  1
  S  S14  1  0.86792400  0.61363500  0.31056000  1
  S  S15  1  0.87451036  0.60993000  0.54151667  1
  S  S16  1  0.73733500  0.13203700  0.33909000  1
  S  S17  1  0.74414562  0.12847857  0.56901986  1
  S  S18  1  0.26326135  0.86934051  0.39166240  1
  S  S19  1  0.26688811  0.86775308  0.62490075  1
  S  S20  1  0.38668300  0.73747600  0.28032400  1
  S  S21  1  0.39434273  0.73735838  0.51209150  1
  S  S22  1  0.61523069  0.26277813  0.44967085  1
  S  S23  1  0.62933818  0.24182694  0.68309041  1
  S  S24  1  0.21767900  0.21800500  0.30009800  1
  S  S25  1  0.22677291  0.21341655  0.53157119  1
  S  S26  1  0.78641273  0.78240350  0.43051531  1
  S  S27  1  0.77733192  0.77193696  0.66384554  1
  H  H28  1  0.53732750  0.39062562  0.71471905  1
