# generated using pymatgen
data_Mo27HCO
_symmetry_space_group_name_H-M   'P 1'
_cell_length_a   8.13431400
_cell_length_b   8.13432797
_cell_length_c   22.13894100
_cell_angle_alpha   90.00084524
_cell_angle_beta   90.00084525
_cell_angle_gamma   109.47202259
_symmetry_Int_Tables_number   1
_chemical_formula_structural   Mo27HCO
_chemical_formula_sum   'Mo27 H1 C1 O1'
_cell_volume   1381.08702123
_cell_formula_units_Z   1
loop_
 _symmetry_equiv_pos_site_id
 _symmetry_equiv_pos_as_xyz
  1  'x, y, z'
loop_
 _atom_site_type_symbol
 _atom_site_label
 _atom_site_symmetry_multiplicity
 _atom_site_fract_x
 _atom_site_fract_y
 _atom_site_fract_z
 _atom_site_occupancy
  Mo  Mo0  1  0.99925732  0.33312955  0.59557661  1
  Mo  Mo1  1  0.00050823  0.66411093  0.60052281  1
  Mo  Mo2  1  0.99815113  0.00627003  0.59822764  1
  Mo  Mo3  1  0.33203095  0.33352905  0.59272901  1
  Mo  Mo4  1  0.33439367  0.66512876  0.59477176  1
  Mo  Mo5  1  0.34050235  0.99829822  0.59340302  1
  Mo  Mo6  1  0.67186897  0.32933623  0.59404965  1
  Mo  Mo7  1  0.66269281  0.66129009  0.59550908  1
  Mo  Mo8  1  0.67111311  0.99946862  0.59664071  1
  Mo  Mo9  1  0.16558592  0.16621649  0.49685098  1
  Mo  Mo10  1  0.16481128  0.50002630  0.49725535  1
  Mo  Mo11  1  0.16424187  0.83179435  0.49864153  1
  Mo  Mo12  1  0.49916588  0.16348413  0.49774247  1
  Mo  Mo13  1  0.49664075  0.49766482  0.49603217  1
  Mo  Mo14  1  0.49884462  0.83101898  0.49693461  1
  Mo  Mo15  1  0.83265308  0.16509677  0.49701475  1
  Mo  Mo16  1  0.83164066  0.49821783  0.49716782  1
  Mo  Mo17  1  0.83340555  0.83220397  0.49764905  1
  Mo  Mo18  1  0.00000000  0.33333300  0.40000000  1
  Mo  Mo19  1  0.00000000  0.66666600  0.40000000  1
  Mo  Mo20  1  1.00000000  1.00000000  0.40000000  1
  Mo  Mo21  1  0.33333300  0.33333300  0.40000000  1
  Mo  Mo22  1  0.33333300  0.66666600  0.40000000  1
  Mo  Mo23  1  0.33333300  1.00000000  0.40000000  1
  Mo  Mo24  1  0.66666700  0.33333300  0.40000000  1
  Mo  Mo25  1  0.66666700  0.66666600  0.40000000  1
  Mo  Mo26  1  0.66666700  1.00000000  0.40000000  1
  C  C27  1  0.83463673  0.79662201  0.66409782  1
  H  H28  1  0.76409727  0.78346239  0.70762901  1
  O  O29  1  0.01421471  0.84370600  0.67201237  1
