# generated using pymatgen
data_Ni27H3N
_symmetry_space_group_name_H-M   'P 1'
_cell_length_a   7.33150949
_cell_length_b   7.33150889
_cell_length_c   21.99719400
_cell_angle_alpha   90.00513446
_cell_angle_beta   93.17934504
_cell_angle_gamma   119.99848735
_symmetry_Int_Tables_number   1
_chemical_formula_structural   Ni27H3N
_chemical_formula_sum   'Ni27 H3 N1'
_cell_volume   1021.87426739
_cell_formula_units_Z   1
loop_
 _symmetry_equiv_pos_site_id
 _symmetry_equiv_pos_as_xyz
  1  'x, y, z'
loop_
 _atom_site_type_symbol
 _atom_site_label
 _atom_site_symmetry_multiplicity
 _atom_site_fract_x
 _atom_site_fract_y
 _atom_site_fract_z
 _atom_site_occupancy
  Ni  Ni0  1  0.09090900  0.04545500  0.40909100  1
  Ni  Ni1  1  0.09090900  0.37878800  0.40909100  1
  Ni  Ni2  1  0.09090900  0.71212100  0.40909100  1
  Ni  Ni3  1  0.42424200  0.04545500  0.40909100  1
  Ni  Ni4  1  0.42424200  0.37878800  0.40909100  1
  Ni  Ni5  1  0.42424200  0.71212100  0.40909100  1
  Ni  Ni6  1  0.75757600  0.04545500  0.40909100  1
  Ni  Ni7  1  0.75757600  0.37878800  0.40909100  1
  Ni  Ni8  1  0.75757600  0.71212100  0.40909100  1
  Ni  Ni9  1  0.33303240  0.16669849  0.50026669  1
  Ni  Ni10  1  0.33628516  0.50131292  0.50196083  1
  Ni  Ni11  1  0.33291703  0.83263264  0.50021224  1
  Ni  Ni12  1  0.66623940  0.16636208  0.49999043  1
  Ni  Ni13  1  0.66482909  0.50139686  0.50205108  1
  Ni  Ni14  1  0.66488383  0.82973994  0.50201590  1
  Ni  Ni15  1  0.99919935  0.16624318  0.50000635  1
  Ni  Ni16  1  0.99927223  0.49942216  0.50003313  1
  Ni  Ni17  1  0.99902723  0.83271742  0.50035229  1
  Ni  Ni18  1  0.23902422  0.28439088  0.59118746  1
  Ni  Ni19  1  0.23920124  0.62099827  0.59124012  1
  Ni  Ni20  1  0.24143464  0.95387239  0.59172742  1
  Ni  Ni21  1  0.57422011  0.28505066  0.59136000  1
  Ni  Ni22  1  0.57581194  0.62115525  0.60015468  1
  Ni  Ni23  1  0.57422178  0.95556123  0.59123210  1
  Ni  Ni24  1  0.90791204  0.28700710  0.59148231  1
  Ni  Ni25  1  0.90980901  0.62100381  0.59140147  1
  Ni  Ni26  1  0.90973714  0.95500404  0.59144132  1
  N  N27  1  0.58429365  0.62715634  0.69081027  1
  H  H28  1  0.73187247  0.66986063  0.70999051  1
  H  H29  1  0.54335524  0.73263560  0.70702853  1
  H  H30  1  0.48024873  0.48177065  0.70700256  1
