# generated using pymatgen
data_HRh27
_symmetry_space_group_name_H-M   'P 1'
_cell_length_a   8.03672266
_cell_length_b   8.03669826
_cell_length_c   21.92791400
_cell_angle_alpha   86.49772645
_cell_angle_beta   86.49795137
_cell_angle_gamma   59.99991575
_symmetry_Int_Tables_number   1
_chemical_formula_structural   HRh27
_chemical_formula_sum   'H1 Rh27'
_cell_volume   1223.49202859
_cell_formula_units_Z   1
loop_
 _symmetry_equiv_pos_site_id
 _symmetry_equiv_pos_as_xyz
  1  'x, y, z'
loop_
 _atom_site_type_symbol
 _atom_site_label
 _atom_site_symmetry_multiplicity
 _atom_site_fract_x
 _atom_site_fract_y
 _atom_site_fract_z
 _atom_site_occupancy
  Rh  Rh0  1  0.06666700  0.06666700  0.40000000  1
  Rh  Rh1  1  0.06666700  0.40000000  0.40000000  1
  Rh  Rh2  1  0.06666700  0.73333300  0.40000000  1
  Rh  Rh3  1  0.40000000  0.06666700  0.40000000  1
  Rh  Rh4  1  0.40000000  0.40000000  0.40000000  1
  Rh  Rh5  1  0.40000000  0.73333300  0.40000000  1
  Rh  Rh6  1  0.73333300  0.06666700  0.40000000  1
  Rh  Rh7  1  0.73333300  0.40000000  0.40000000  1
  Rh  Rh8  1  0.73333300  0.73333300  0.40000000  1
  Rh  Rh9  1  0.16692396  0.16692226  0.49858493  1
  Rh  Rh10  1  0.16716420  0.50042071  0.49870105  1
  Rh  Rh11  1  0.16710374  0.83316778  0.49870952  1
  Rh  Rh12  1  0.50042236  0.16716260  0.49870105  1
  Rh  Rh13  1  0.50027794  0.50027634  0.49871191  1
  Rh  Rh14  1  0.50039874  0.83324793  0.49867497  1
  Rh  Rh15  1  0.83316935  0.16710213  0.49870954  1
  Rh  Rh16  1  0.83324946  0.50039711  0.49867500  1
  Rh  Rh17  1  0.83360617  0.83360445  0.49842192  1
  Rh  Rh18  1  0.26625657  0.26625289  0.59699115  1
  Rh  Rh19  1  0.26243702  0.60262144  0.59871202  1
  Rh  Rh20  1  0.26621286  0.93575496  0.59697514  1
  Rh  Rh21  1  0.60262490  0.26243371  0.59871202  1
  Rh  Rh22  1  0.60290788  0.60290433  0.59866091  1
  Rh  Rh23  1  0.60045868  0.93396567  0.59714928  1
  Rh  Rh24  1  0.93575851  0.26620932  0.59697516  1
  Rh  Rh25  1  0.93396911  0.60045525  0.59714930  1
  Rh  Rh26  1  0.93381774  0.93381425  0.59716411  1
  H  H27  1  0.48525850  0.48525561  0.64159848  1
