# generated using pymatgen
data_Mo27N2
_symmetry_space_group_name_H-M   'P 1'
_cell_length_a   8.13431400
_cell_length_b   8.13432797
_cell_length_c   22.13894100
_cell_angle_alpha   90.00084524
_cell_angle_beta   90.00084525
_cell_angle_gamma   109.47202259
_symmetry_Int_Tables_number   1
_chemical_formula_structural   Mo27N2
_chemical_formula_sum   'Mo27 N2'
_cell_volume   1381.08702123
_cell_formula_units_Z   1
loop_
 _symmetry_equiv_pos_site_id
 _symmetry_equiv_pos_as_xyz
  1  'x, y, z'
loop_
 _atom_site_type_symbol
 _atom_site_label
 _atom_site_symmetry_multiplicity
 _atom_site_fract_x
 _atom_site_fract_y
 _atom_site_fract_z
 _atom_site_occupancy
  Mo  Mo0  1  0.99904042  0.33393433  0.59498597  1
  Mo  Mo1  1  0.00161540  0.66696400  0.59510492  1
  Mo  Mo2  1  0.99950712  0.99950673  0.59442743  1
  Mo  Mo3  1  0.33347000  0.33346988  0.59442481  1
  Mo  Mo4  1  0.33138672  0.66601368  0.59509602  1
  Mo  Mo5  1  0.33393447  0.99904031  0.59498569  1
  Mo  Mo6  1  0.66601429  0.33138548  0.59509604  1
  Mo  Mo7  1  0.66652544  0.66652439  0.60018318  1
  Mo  Mo8  1  0.66696470  0.00161400  0.59510478  1
  Mo  Mo9  1  0.16660179  0.16660160  0.49776435  1
  Mo  Mo10  1  0.16631750  0.50045261  0.49752725  1
  Mo  Mo11  1  0.16689427  0.83274884  0.49752807  1
  Mo  Mo12  1  0.50045288  0.16631696  0.49752722  1
  Mo  Mo13  1  0.49871681  0.49871620  0.49709893  1
  Mo  Mo14  1  0.50071061  0.83249858  0.49784548  1
  Mo  Mo15  1  0.83274919  0.16689373  0.49752810  1
  Mo  Mo16  1  0.83249927  0.50071000  0.49784566  1
  Mo  Mo17  1  0.83448969  0.83448907  0.49710485  1
  Mo  Mo18  1  0.00000000  0.33333300  0.40000000  1
  Mo  Mo19  1  0.00000000  0.66666600  0.40000000  1
  Mo  Mo20  1  1.00000000  1.00000000  0.40000000  1
  Mo  Mo21  1  0.33333300  0.33333300  0.40000000  1
  Mo  Mo22  1  0.33333300  0.66666600  0.40000000  1
  Mo  Mo23  1  0.33333300  1.00000000  0.40000000  1
  Mo  Mo24  1  0.66666700  0.33333300  0.40000000  1
  Mo  Mo25  1  0.66666700  0.66666600  0.40000000  1
  Mo  Mo26  1  0.66666700  1.00000000  0.40000000  1
  N  N27  1  0.66646077  0.66645176  0.69325506  1
  N  N28  1  0.66645524  0.66644191  0.74446118  1
