# generated using pymatgen
data_Ni27HCO
_symmetry_space_group_name_H-M   'P 1'
_cell_length_a   7.33150949
_cell_length_b   7.33150889
_cell_length_c   21.99719400
_cell_angle_alpha   90.00513446
_cell_angle_beta   93.17934504
_cell_angle_gamma   119.99848735
_symmetry_Int_Tables_number   1
_chemical_formula_structural   Ni27HCO
_chemical_formula_sum   'Ni27 H1 C1 O1'
_cell_volume   1021.87426739
_cell_formula_units_Z   1
loop_
 _symmetry_equiv_pos_site_id
 _symmetry_equiv_pos_as_xyz
  1  'x, y, z'
loop_
 _atom_site_type_symbol
 _atom_site_label
 _atom_site_symmetry_multiplicity
 _atom_site_fract_x
 _atom_site_fract_y
 _atom_site_fract_z
 _atom_site_occupancy
  Ni  Ni0  1  0.09090900  0.04545500  0.40909100  1
  Ni  Ni1  1  0.09090900  0.37878800  0.40909100  1
  Ni  Ni2  1  0.09090900  0.71212100  0.40909100  1
  Ni  Ni3  1  0.42424200  0.04545500  0.40909100  1
  Ni  Ni4  1  0.42424200  0.37878800  0.40909100  1
  Ni  Ni5  1  0.42424200  0.71212100  0.40909100  1
  Ni  Ni6  1  0.75757600  0.04545500  0.40909100  1
  Ni  Ni7  1  0.75757600  0.37878800  0.40909100  1
  Ni  Ni8  1  0.75757600  0.71212100  0.40909100  1
  Ni  Ni9  1  0.33123307  0.16785931  0.50006713  1
  Ni  Ni10  1  0.33354265  0.50191611  0.50134165  1
  Ni  Ni11  1  0.33147773  0.83385938  0.50038252  1
  Ni  Ni12  1  0.66500407  0.16776052  0.50040227  1
  Ni  Ni13  1  0.66608417  0.50234201  0.50138759  1
  Ni  Ni14  1  0.66382277  0.83195460  0.50108819  1
  Ni  Ni15  1  0.99827154  0.16746706  0.49935850  1
  Ni  Ni16  1  0.99740464  0.50241253  0.50189917  1
  Ni  Ni17  1  0.99685138  0.83175465  0.50182776  1
  Ni  Ni18  1  0.23762809  0.28787299  0.59145855  1
  Ni  Ni19  1  0.24038815  0.62349989  0.59153790  1
  Ni  Ni20  1  0.24155617  0.95749236  0.59153349  1
  Ni  Ni21  1  0.56907422  0.28477495  0.59137607  1
  Ni  Ni22  1  0.57449550  0.62399797  0.59680603  1
  Ni  Ni23  1  0.57216872  0.95701478  0.59178640  1
  Ni  Ni24  1  0.90629551  0.28764592  0.59130458  1
  Ni  Ni25  1  0.91076084  0.62325247  0.59735929  1
  Ni  Ni26  1  0.90665841  0.96053705  0.59150923  1
  C  C27  1  0.68102412  0.63499256  0.67379054  1
  H  H28  1  0.59196320  0.64228195  0.71219264  1
  O  O29  1  0.84966807  0.63325310  0.68748380  1
