# generated using pymatgen
data_Ni27HO2
_symmetry_space_group_name_H-M   'P 1'
_cell_length_a   7.33150949
_cell_length_b   7.33150889
_cell_length_c   21.99719400
_cell_angle_alpha   90.00513446
_cell_angle_beta   93.17934504
_cell_angle_gamma   119.99848735
_symmetry_Int_Tables_number   1
_chemical_formula_structural   Ni27HO2
_chemical_formula_sum   'Ni27 H1 O2'
_cell_volume   1021.87426739
_cell_formula_units_Z   1
loop_
 _symmetry_equiv_pos_site_id
 _symmetry_equiv_pos_as_xyz
  1  'x, y, z'
loop_
 _atom_site_type_symbol
 _atom_site_label
 _atom_site_symmetry_multiplicity
 _atom_site_fract_x
 _atom_site_fract_y
 _atom_site_fract_z
 _atom_site_occupancy
  Ni  Ni0  1  0.09090900  0.04545500  0.40909100  1
  Ni  Ni1  1  0.09090900  0.37878800  0.40909100  1
  Ni  Ni2  1  0.09090900  0.71212100  0.40909100  1
  Ni  Ni3  1  0.42424200  0.04545500  0.40909100  1
  Ni  Ni4  1  0.42424200  0.37878800  0.40909100  1
  Ni  Ni5  1  0.42424200  0.71212100  0.40909100  1
  Ni  Ni6  1  0.75757600  0.04545500  0.40909100  1
  Ni  Ni7  1  0.75757600  0.37878800  0.40909100  1
  Ni  Ni8  1  0.75757600  0.71212100  0.40909100  1
  Ni  Ni9  1  0.33440835  0.16849089  0.50088252  1
  Ni  Ni10  1  0.33491619  0.50063561  0.50016321  1
  Ni  Ni11  1  0.33494326  0.83429736  0.50030499  1
  Ni  Ni12  1  0.66832235  0.16713171  0.49994316  1
  Ni  Ni13  1  0.66739034  0.50072376  0.49952782  1
  Ni  Ni14  1  0.66833400  0.83299846  0.50115820  1
  Ni  Ni15  1  0.00533221  0.16899779  0.50171273  1
  Ni  Ni16  1  0.99998500  0.49999800  0.50003300  1
  Ni  Ni17  1  0.99991600  0.83301700  0.50012700  1
  Ni  Ni18  1  0.24660852  0.29217377  0.59563787  1
  Ni  Ni19  1  0.24505888  0.62731035  0.59137057  1
  Ni  Ni20  1  0.24616256  0.95603250  0.59124004  1
  Ni  Ni21  1  0.58458593  0.28697475  0.59131424  1
  Ni  Ni22  1  0.58436882  0.62491716  0.59225071  1
  Ni  Ni23  1  0.58035092  0.95741390  0.59113111  1
  Ni  Ni24  1  0.91294163  0.29012239  0.59131809  1
  Ni  Ni25  1  0.91601574  0.62445362  0.59103783  1
  Ni  Ni26  1  0.91500683  0.95789407  0.59141665  1
  O  O27  1  0.46364249  0.44647033  0.65844705  1
  O  O28  1  0.42271023  0.57794879  0.70189729  1
  H  H29  1  0.55748545  0.64248117  0.72829963  1
