# generated using pymatgen
data_Mo6S8N
_symmetry_space_group_name_H-M   'P 1'
_cell_length_a   6.40582443
_cell_length_b   6.40502189
_cell_length_c   27.80788600
_cell_angle_alpha   91.26713631
_cell_angle_beta   91.36148131
_cell_angle_gamma   91.33958978
_symmetry_Int_Tables_number   1
_chemical_formula_structural   Mo6S8N
_chemical_formula_sum   'Mo12 S16 N2'
_cell_volume   1140.01494538
_cell_formula_units_Z   2
loop_
 _symmetry_equiv_pos_site_id
 _symmetry_equiv_pos_as_xyz
  1  'x, y, z'
loop_
 _atom_site_type_symbol
 _atom_site_label
 _atom_site_symmetry_multiplicity
 _atom_site_fract_x
 _atom_site_fract_y
 _atom_site_fract_z
 _atom_site_occupancy
  Mo  Mo0  1  0.21053600  0.55052600  0.34322700  1
  Mo  Mo1  1  0.21411062  0.55056008  0.57381650  1
  Mo  Mo2  1  0.78871322  0.44842594  0.38688643  1
  Mo  Mo3  1  0.79344013  0.43906561  0.61780561  1
  Mo  Mo4  1  0.40825374  0.21375033  0.37673103  1
  Mo  Mo5  1  0.41460140  0.20569072  0.60666454  1
  Mo  Mo6  1  0.59470900  0.78943200  0.35357800  1
  Mo  Mo7  1  0.59708139  0.78409773  0.58402089  1
  Mo  Mo8  1  0.55045000  0.40548900  0.29849800  1
  Mo  Mo9  1  0.55043413  0.40464061  0.52892396  1
  Mo  Mo10  1  0.45193649  0.59546495  0.43182114  1
  Mo  Mo11  1  0.45809788  0.57485679  0.66041125  1
  S  S12  1  0.13366008  0.38726609  0.41994608  1
  S  S13  1  0.13718544  0.37577122  0.64879392  1
  S  S14  1  0.86792400  0.61363500  0.31056000  1
  S  S15  1  0.87026744  0.60801450  0.54121176  1
  S  S16  1  0.73733500  0.13203700  0.33909000  1
  S  S17  1  0.74290071  0.12631472  0.56795847  1
  S  S18  1  0.26308650  0.86950217  0.39145544  1
  S  S19  1  0.27335271  0.86254039  0.62460150  1
  S  S20  1  0.38668300  0.73747600  0.28032400  1
  S  S21  1  0.38648914  0.73960815  0.51088947  1
  S  S22  1  0.61584886  0.26223518  0.45002508  1
  S  S23  1  0.62222416  0.24624997  0.68062814  1
  S  S24  1  0.21767900  0.21800500  0.30009800  1
  S  S25  1  0.21668519  0.21600359  0.53080998  1
  S  S26  1  0.78580290  0.78157751  0.43045995  1
  S  S27  1  0.78710124  0.77251472  0.66029207  1
  N  N28  1  0.43532976  0.62960849  0.73472115  1
  N  N29  1  0.42944123  0.64455649  0.77496172  1
