# generated using pymatgen
data_Ni27HN2
_symmetry_space_group_name_H-M   'P 1'
_cell_length_a   7.33150949
_cell_length_b   7.33150889
_cell_length_c   21.99719400
_cell_angle_alpha   90.00513446
_cell_angle_beta   93.17934504
_cell_angle_gamma   119.99848735
_symmetry_Int_Tables_number   1
_chemical_formula_structural   Ni27HN2
_chemical_formula_sum   'Ni27 H1 N2'
_cell_volume   1021.87426739
_cell_formula_units_Z   1
loop_
 _symmetry_equiv_pos_site_id
 _symmetry_equiv_pos_as_xyz
  1  'x, y, z'
loop_
 _atom_site_type_symbol
 _atom_site_label
 _atom_site_symmetry_multiplicity
 _atom_site_fract_x
 _atom_site_fract_y
 _atom_site_fract_z
 _atom_site_occupancy
  Ni  Ni0  1  0.09090900  0.04545500  0.40909100  1
  Ni  Ni1  1  0.09090900  0.37878800  0.40909100  1
  Ni  Ni2  1  0.09090900  0.71212100  0.40909100  1
  Ni  Ni3  1  0.42424200  0.04545500  0.40909100  1
  Ni  Ni4  1  0.42424200  0.37878800  0.40909100  1
  Ni  Ni5  1  0.42424200  0.71212100  0.40909100  1
  Ni  Ni6  1  0.75757600  0.04545500  0.40909100  1
  Ni  Ni7  1  0.75757600  0.37878800  0.40909100  1
  Ni  Ni8  1  0.75757600  0.71212100  0.40909100  1
  Ni  Ni9  1  0.33404126  0.16739818  0.50043598  1
  Ni  Ni10  1  0.33826865  0.50252569  0.50255978  1
  Ni  Ni11  1  0.33389863  0.83340146  0.50038300  1
  Ni  Ni12  1  0.66726426  0.16703416  0.49998537  1
  Ni  Ni13  1  0.66584222  0.50257912  0.50253351  1
  Ni  Ni14  1  0.66596461  0.83023915  0.50233373  1
  Ni  Ni15  1  0.00025066  0.16710113  0.49989837  1
  Ni  Ni16  1  0.00045052  0.50022736  0.50004916  1
  Ni  Ni17  1  0.00035390  0.83346258  0.50038636  1
  Ni  Ni18  1  0.23930740  0.28388419  0.59144726  1
  Ni  Ni19  1  0.24057404  0.62200179  0.59160272  1
  Ni  Ni20  1  0.24353735  0.95503263  0.59221326  1
  Ni  Ni21  1  0.57573684  0.28406473  0.59137676  1
  Ni  Ni22  1  0.57816316  0.62188594  0.60529741  1
  Ni  Ni23  1  0.57573565  0.95717445  0.59142272  1
  Ni  Ni24  1  0.90926646  0.28754757  0.59140351  1
  Ni  Ni25  1  0.91322215  0.62230119  0.59142526  1
  Ni  Ni26  1  0.91308425  0.95724365  0.59134827  1
  N  N27  1  0.59151635  0.62602576  0.68296228  1
  N  N28  1  0.57303784  0.62690764  0.73657178  1
  H  H29  1  0.69132565  0.63080720  0.76665230  1
