# generated using pymatgen
data_Mo27H
_symmetry_space_group_name_H-M   'P 1'
_cell_length_a   8.13431400
_cell_length_b   8.13432797
_cell_length_c   22.13894100
_cell_angle_alpha   90.00084524
_cell_angle_beta   90.00084525
_cell_angle_gamma   109.47202259
_symmetry_Int_Tables_number   1
_chemical_formula_structural   Mo27H
_chemical_formula_sum   'Mo27 H1'
_cell_volume   1381.08702123
_cell_formula_units_Z   1
loop_
 _symmetry_equiv_pos_site_id
 _symmetry_equiv_pos_as_xyz
  1  'x, y, z'
loop_
 _atom_site_type_symbol
 _atom_site_label
 _atom_site_symmetry_multiplicity
 _atom_site_fract_x
 _atom_site_fract_y
 _atom_site_fract_z
 _atom_site_occupancy
  Mo  Mo0  1  0.99917570  0.33328838  0.59503508  1
  Mo  Mo1  1  0.00036213  0.66625672  0.59503728  1
  Mo  Mo2  1  0.99977264  0.99977215  0.59383142  1
  Mo  Mo3  1  0.32966390  0.32966327  0.59568172  1
  Mo  Mo4  1  0.33283216  0.66672343  0.59561881  1
  Mo  Mo5  1  0.33328889  0.99917504  0.59503504  1
  Mo  Mo6  1  0.66672415  0.33283114  0.59561849  1
  Mo  Mo7  1  0.66991707  0.66991664  0.59569453  1
  Mo  Mo8  1  0.66625712  0.00036137  0.59503749  1
  Mo  Mo9  1  0.16602699  0.16602658  0.49665917  1
  Mo  Mo10  1  0.16661957  0.49978338  0.49771574  1
  Mo  Mo11  1  0.16728969  0.83250959  0.49745356  1
  Mo  Mo12  1  0.49978360  0.16661908  0.49771570  1
  Mo  Mo13  1  0.49990188  0.49990136  0.49725506  1
  Mo  Mo14  1  0.50001936  0.83317506  0.49771666  1
  Mo  Mo15  1  0.83250989  0.16728924  0.49745353  1
  Mo  Mo16  1  0.83317563  0.50001890  0.49771666  1
  Mo  Mo17  1  0.83377238  0.83377181  0.49666015  1
  Mo  Mo18  1  0.00000000  0.33333300  0.40000000  1
  Mo  Mo19  1  0.00000000  0.66666600  0.40000000  1
  Mo  Mo20  1  1.00000000  1.00000000  0.40000000  1
  Mo  Mo21  1  0.33333300  0.33333300  0.40000000  1
  Mo  Mo22  1  0.33333300  0.66666600  0.40000000  1
  Mo  Mo23  1  0.33333300  1.00000000  0.40000000  1
  Mo  Mo24  1  0.66666700  0.33333300  0.40000000  1
  Mo  Mo25  1  0.66666700  0.66666600  0.40000000  1
  Mo  Mo26  1  0.66666700  1.00000000  0.40000000  1
  H  H27  1  0.49979975  0.49980499  0.64421406  1
