# generated using pymatgen
data_Mo6S8N
_symmetry_space_group_name_H-M   'P 1'
_cell_length_a   6.40582443
_cell_length_b   6.40502189
_cell_length_c   27.80788600
_cell_angle_alpha   91.26713631
_cell_angle_beta   91.36148131
_cell_angle_gamma   91.33958978
_symmetry_Int_Tables_number   1
_chemical_formula_structural   Mo6S8N
_chemical_formula_sum   'Mo12 S16 N2'
_cell_volume   1140.01494538
_cell_formula_units_Z   2
loop_
 _symmetry_equiv_pos_site_id
 _symmetry_equiv_pos_as_xyz
  1  'x, y, z'
loop_
 _atom_site_type_symbol
 _atom_site_label
 _atom_site_symmetry_multiplicity
 _atom_site_fract_x
 _atom_site_fract_y
 _atom_site_fract_z
 _atom_site_occupancy
  Mo  Mo0  1  0.21053600  0.55052600  0.34322700  1
  Mo  Mo1  1  0.21330471  0.55197122  0.57377354  1
  Mo  Mo2  1  0.78900139  0.44851853  0.38694330  1
  Mo  Mo3  1  0.79289810  0.44024184  0.61766420  1
  Mo  Mo4  1  0.40842222  0.21404426  0.37677040  1
  Mo  Mo5  1  0.41351931  0.20633142  0.60651634  1
  Mo  Mo6  1  0.59470900  0.78943200  0.35357800  1
  Mo  Mo7  1  0.59559754  0.78557572  0.58393904  1
  Mo  Mo8  1  0.55045000  0.40548900  0.29849800  1
  Mo  Mo9  1  0.54932987  0.40644113  0.52896467  1
  Mo  Mo10  1  0.45200029  0.59596834  0.43178624  1
  Mo  Mo11  1  0.45835666  0.57461657  0.66027836  1
  S  S12  1  0.13381901  0.38766152  0.41993414  1
  S  S13  1  0.13630697  0.37694596  0.64872516  1
  S  S14  1  0.86792400  0.61363500  0.31056000  1
  S  S15  1  0.86930437  0.61003797  0.54120065  1
  S  S16  1  0.73733500  0.13203700  0.33909000  1
  S  S17  1  0.74172825  0.12755584  0.56778783  1
  S  S18  1  0.26297955  0.86986811  0.39130791  1
  S  S19  1  0.27265824  0.86331880  0.62481439  1
  S  S20  1  0.38668300  0.73747600  0.28032400  1
  S  S21  1  0.38509151  0.74129652  0.51075009  1
  S  S22  1  0.61605529  0.26282517  0.45013580  1
  S  S23  1  0.62205801  0.24525854  0.68005696  1
  S  S24  1  0.21767900  0.21800500  0.30009800  1
  S  S25  1  0.21515302  0.21764176  0.53072011  1
  S  S26  1  0.78611356  0.78162804  0.43048416  1
  S  S27  1  0.78623839  0.77395348  0.66002839  1
  N  N28  1  0.44098790  0.62010078  0.73549714  1
  N  N29  1  0.44060491  0.62578495  0.77576903  1
