# generated using pymatgen
data_Mo12H(S8N)2
_symmetry_space_group_name_H-M   'P 1'
_cell_length_a   6.40582443
_cell_length_b   6.40502189
_cell_length_c   27.80788600
_cell_angle_alpha   91.26713631
_cell_angle_beta   91.36148131
_cell_angle_gamma   91.33958978
_symmetry_Int_Tables_number   1
_chemical_formula_structural   Mo12H(S8N)2
_chemical_formula_sum   'Mo12 H1 S16 N2'
_cell_volume   1140.01494538
_cell_formula_units_Z   1
loop_
 _symmetry_equiv_pos_site_id
 _symmetry_equiv_pos_as_xyz
  1  'x, y, z'
loop_
 _atom_site_type_symbol
 _atom_site_label
 _atom_site_symmetry_multiplicity
 _atom_site_fract_x
 _atom_site_fract_y
 _atom_site_fract_z
 _atom_site_occupancy
  Mo  Mo0  1  0.21053600  0.55052600  0.34322700  1
  Mo  Mo1  1  0.21108758  0.54565577  0.57482509  1
  Mo  Mo2  1  0.78822420  0.44867097  0.38671603  1
  Mo  Mo3  1  0.78809212  0.44108784  0.61900218  1
  Mo  Mo4  1  0.40792649  0.21366448  0.37669079  1
  Mo  Mo5  1  0.40734473  0.20982995  0.60663794  1
  Mo  Mo6  1  0.59470900  0.78943200  0.35357800  1
  Mo  Mo7  1  0.59124315  0.78051065  0.58467878  1
  Mo  Mo8  1  0.55045000  0.40548900  0.29849800  1
  Mo  Mo9  1  0.54988051  0.40033100  0.52895162  1
  Mo  Mo10  1  0.45037584  0.59489921  0.43203013  1
  Mo  Mo11  1  0.45026620  0.58912030  0.66620116  1
  S  S12  1  0.13272209  0.38603098  0.41989293  1
  S  S13  1  0.13127284  0.38078579  0.65141180  1
  S  S14  1  0.86792400  0.61363500  0.31056000  1
  S  S15  1  0.86770623  0.60501103  0.54217334  1
  S  S16  1  0.73733500  0.13203700  0.33909000  1
  S  S17  1  0.73704290  0.12399262  0.56843813  1
  S  S18  1  0.26294496  0.86903257  0.39161892  1
  S  S19  1  0.26242119  0.86242375  0.62411119  1
  S  S20  1  0.38668300  0.73747600  0.28032400  1
  S  S21  1  0.38415518  0.73290079  0.51118984  1
  S  S22  1  0.61547575  0.26243541  0.44988725  1
  S  S23  1  0.60691976  0.24882147  0.67994773  1
  S  S24  1  0.21767900  0.21800500  0.30009800  1
  S  S25  1  0.21644482  0.21531033  0.52965205  1
  S  S26  1  0.78391095  0.78127438  0.43066723  1
  S  S27  1  0.78265490  0.77890072  0.65981273  1
  N  N28  1  0.45886857  0.64389626  0.73273300  1
  N  N29  1  0.46311517  0.66259313  0.77631518  1
  H  H30  1  0.56661815  0.56574282  0.79446395  1
