# generated using pymatgen
data_Ni27H
_symmetry_space_group_name_H-M   'P 1'
_cell_length_a   7.33150949
_cell_length_b   7.33150889
_cell_length_c   21.99719400
_cell_angle_alpha   90.00513446
_cell_angle_beta   93.17934504
_cell_angle_gamma   119.99848735
_symmetry_Int_Tables_number   1
_chemical_formula_structural   Ni27H
_chemical_formula_sum   'Ni27 H1'
_cell_volume   1021.87426739
_cell_formula_units_Z   1
loop_
 _symmetry_equiv_pos_site_id
 _symmetry_equiv_pos_as_xyz
  1  'x, y, z'
loop_
 _atom_site_type_symbol
 _atom_site_label
 _atom_site_symmetry_multiplicity
 _atom_site_fract_x
 _atom_site_fract_y
 _atom_site_fract_z
 _atom_site_occupancy
  Ni  Ni0  1  0.09090900  0.04545500  0.40909100  1
  Ni  Ni1  1  0.09090900  0.37878800  0.40909100  1
  Ni  Ni2  1  0.09090900  0.71212100  0.40909100  1
  Ni  Ni3  1  0.42424200  0.04545500  0.40909100  1
  Ni  Ni4  1  0.42424200  0.37878800  0.40909100  1
  Ni  Ni5  1  0.42424200  0.71212100  0.40909100  1
  Ni  Ni6  1  0.75757600  0.04545500  0.40909100  1
  Ni  Ni7  1  0.75757600  0.37878800  0.40909100  1
  Ni  Ni8  1  0.75757600  0.71212100  0.40909100  1
  Ni  Ni9  1  0.33421330  0.16760805  0.50085079  1
  Ni  Ni10  1  0.33493839  0.50075260  0.50048882  1
  Ni  Ni11  1  0.33419784  0.83327569  0.50083101  1
  Ni  Ni12  1  0.66706659  0.16691303  0.50101326  1
  Ni  Ni13  1  0.66677607  0.50090755  0.50065804  1
  Ni  Ni14  1  0.66677156  0.83240720  0.50061948  1
  Ni  Ni15  1  0.00088935  0.16697639  0.50105148  1
  Ni  Ni16  1  0.00085364  0.50055798  0.50108496  1
  Ni  Ni17  1  0.00001711  0.83328095  0.50081913  1
  Ni  Ni18  1  0.24361662  0.28857423  0.59239548  1
  Ni  Ni19  1  0.24370975  0.62177163  0.59238801  1
  Ni  Ni20  1  0.24338458  0.95497704  0.59198737  1
  Ni  Ni21  1  0.57696229  0.28859034  0.59231220  1
  Ni  Ni22  1  0.57695892  0.62186911  0.59333602  1
  Ni  Ni23  1  0.57703486  0.95500045  0.59226932  1
  Ni  Ni24  1  0.90994920  0.28825585  0.59229028  1
  Ni  Ni25  1  0.90996454  0.62180303  0.59225274  1
  Ni  Ni26  1  0.90996978  0.95485636  0.59223002  1
  H  H27  1  0.56954965  0.61814652  0.65986568  1
