# generated using pymatgen
data_Ni27HO
_symmetry_space_group_name_H-M   'P 1'
_cell_length_a   7.33150949
_cell_length_b   7.33150889
_cell_length_c   21.99719400
_cell_angle_alpha   90.00513446
_cell_angle_beta   93.17934504
_cell_angle_gamma   119.99848735
_symmetry_Int_Tables_number   1
_chemical_formula_structural   Ni27HO
_chemical_formula_sum   'Ni27 H1 O1'
_cell_volume   1021.87426739
_cell_formula_units_Z   1
loop_
 _symmetry_equiv_pos_site_id
 _symmetry_equiv_pos_as_xyz
  1  'x, y, z'
loop_
 _atom_site_type_symbol
 _atom_site_label
 _atom_site_symmetry_multiplicity
 _atom_site_fract_x
 _atom_site_fract_y
 _atom_site_fract_z
 _atom_site_occupancy
  Ni  Ni0  1  0.09090900  0.04545500  0.40909100  1
  Ni  Ni1  1  0.09090900  0.37878800  0.40909100  1
  Ni  Ni2  1  0.09090900  0.71212100  0.40909100  1
  Ni  Ni3  1  0.42424200  0.04545500  0.40909100  1
  Ni  Ni4  1  0.42424200  0.37878800  0.40909100  1
  Ni  Ni5  1  0.42424200  0.71212100  0.40909100  1
  Ni  Ni6  1  0.75757600  0.04545500  0.40909100  1
  Ni  Ni7  1  0.75757600  0.37878800  0.40909100  1
  Ni  Ni8  1  0.75757600  0.71212100  0.40909100  1
  Ni  Ni9  1  0.33272248  0.16658120  0.50025875  1
  Ni  Ni10  1  0.33503782  0.50071496  0.50150288  1
  Ni  Ni11  1  0.33262988  0.83251576  0.50022830  1
  Ni  Ni12  1  0.66566308  0.16601170  0.50005618  1
  Ni  Ni13  1  0.66418322  0.50134560  0.50200197  1
  Ni  Ni14  1  0.66422333  0.82910312  0.50199478  1
  Ni  Ni15  1  0.99892284  0.16594097  0.50039705  1
  Ni  Ni16  1  0.99890753  0.49939892  0.50041935  1
  Ni  Ni17  1  0.99850647  0.83244171  0.50024260  1
  Ni  Ni18  1  0.23753082  0.28308902  0.59132504  1
  Ni  Ni19  1  0.23755786  0.62089407  0.59133729  1
  Ni  Ni20  1  0.24019816  0.95331998  0.59157529  1
  Ni  Ni21  1  0.57391439  0.28484027  0.59146098  1
  Ni  Ni22  1  0.57347710  0.61995134  0.59936941  1
  Ni  Ni23  1  0.57387349  0.95520701  0.59143746  1
  Ni  Ni24  1  0.90667890  0.28639540  0.59157434  1
  Ni  Ni25  1  0.90840580  0.62095360  0.59161184  1
  Ni  Ni26  1  0.90843033  0.95387392  0.59161702  1
  O  O27  1  0.52241460  0.59391189  0.68291758  1
  H  H28  1  0.66202697  0.66488403  0.70492863  1
