# generated using pymatgen
data_Ni27HCO
_symmetry_space_group_name_H-M   'P 1'
_cell_length_a   7.33150949
_cell_length_b   7.33150889
_cell_length_c   21.99719400
_cell_angle_alpha   90.00513446
_cell_angle_beta   93.17934504
_cell_angle_gamma   119.99848735
_symmetry_Int_Tables_number   1
_chemical_formula_structural   Ni27HCO
_chemical_formula_sum   'Ni27 H1 C1 O1'
_cell_volume   1021.87426739
_cell_formula_units_Z   1
loop_
 _symmetry_equiv_pos_site_id
 _symmetry_equiv_pos_as_xyz
  1  'x, y, z'
loop_
 _atom_site_type_symbol
 _atom_site_label
 _atom_site_symmetry_multiplicity
 _atom_site_fract_x
 _atom_site_fract_y
 _atom_site_fract_z
 _atom_site_occupancy
  Ni  Ni0  1  0.09090900  0.04545500  0.40909100  1
  Ni  Ni1  1  0.09090900  0.37878800  0.40909100  1
  Ni  Ni2  1  0.09090900  0.71212100  0.40909100  1
  Ni  Ni3  1  0.42424200  0.04545500  0.40909100  1
  Ni  Ni4  1  0.42424200  0.37878800  0.40909100  1
  Ni  Ni5  1  0.42424200  0.71212100  0.40909100  1
  Ni  Ni6  1  0.75757600  0.04545500  0.40909100  1
  Ni  Ni7  1  0.75757600  0.37878800  0.40909100  1
  Ni  Ni8  1  0.75757600  0.71212100  0.40909100  1
  Ni  Ni9  1  0.33787438  0.17149054  0.50125908  1
  Ni  Ni10  1  0.33781976  0.50348943  0.49940976  1
  Ni  Ni11  1  0.33786313  0.83600512  0.50122944  1
  Ni  Ni12  1  0.67145422  0.17030198  0.49986793  1
  Ni  Ni13  1  0.67108875  0.50459740  0.50108325  1
  Ni  Ni14  1  0.67103914  0.83561672  0.50134894  1
  Ni  Ni15  1  0.00693063  0.17143409  0.50138163  1
  Ni  Ni16  1  0.00634635  0.50469627  0.50107809  1
  Ni  Ni17  1  0.00507863  0.83728179  0.50103299  1
  Ni  Ni18  1  0.25244067  0.29563312  0.59644055  1
  Ni  Ni19  1  0.25076986  0.62931718  0.59583439  1
  Ni  Ni20  1  0.25061678  0.96180918  0.59228415  1
  Ni  Ni21  1  0.58582947  0.29311900  0.59156414  1
  Ni  Ni22  1  0.58732450  0.62907345  0.59603993  1
  Ni  Ni23  1  0.58575115  0.96434707  0.59167942  1
  Ni  Ni24  1  0.91460251  0.29324861  0.59161595  1
  Ni  Ni25  1  0.91796561  0.62852641  0.59224539  1
  Ni  Ni26  1  0.91873914  0.96166078  0.59232615  1
  C  C27  1  0.37646870  0.52957400  0.65098585  1
  H  H28  1  0.47256206  0.48668784  0.73067325  1
  O  O29  1  0.38494833  0.54151319  0.71070222  1
