# generated using pymatgen
data_Mo27HCO
_symmetry_space_group_name_H-M   'P 1'
_cell_length_a   8.13431400
_cell_length_b   8.13432797
_cell_length_c   22.13894100
_cell_angle_alpha   90.00084524
_cell_angle_beta   90.00084525
_cell_angle_gamma   109.47202259
_symmetry_Int_Tables_number   1
_chemical_formula_structural   Mo27HCO
_chemical_formula_sum   'Mo27 H1 C1 O1'
_cell_volume   1381.08702123
_cell_formula_units_Z   1
loop_
 _symmetry_equiv_pos_site_id
 _symmetry_equiv_pos_as_xyz
  1  'x, y, z'
loop_
 _atom_site_type_symbol
 _atom_site_label
 _atom_site_symmetry_multiplicity
 _atom_site_fract_x
 _atom_site_fract_y
 _atom_site_fract_z
 _atom_site_occupancy
  Mo  Mo0  1  0.00015748  0.33158209  0.59516646  1
  Mo  Mo1  1  0.00618185  0.66500346  0.59915005  1
  Mo  Mo2  1  0.00072671  0.00111920  0.59965959  1
  Mo  Mo3  1  0.33248057  0.33057103  0.59297882  1
  Mo  Mo4  1  0.33052829  0.66673685  0.59418654  1
  Mo  Mo5  1  0.34286968  0.99968313  0.59332132  1
  Mo  Mo6  1  0.67063224  0.32954844  0.59491412  1
  Mo  Mo7  1  0.65707723  0.65497085  0.59645804  1
  Mo  Mo8  1  0.67461741  0.99604577  0.59815575  1
  Mo  Mo9  1  0.16579678  0.16551281  0.49705502  1
  Mo  Mo10  1  0.16505001  0.49935824  0.49703701  1
  Mo  Mo11  1  0.16588618  0.83345450  0.49850011  1
  Mo  Mo12  1  0.50127963  0.16386205  0.49785783  1
  Mo  Mo13  1  0.49707399  0.49502497  0.49539771  1
  Mo  Mo14  1  0.50105109  0.83051652  0.49754245  1
  Mo  Mo15  1  0.83364176  0.16468762  0.49813593  1
  Mo  Mo16  1  0.83331265  0.49954285  0.49864515  1
  Mo  Mo17  1  0.83444597  0.83250595  0.49818388  1
  Mo  Mo18  1  0.00000000  0.33333300  0.40000000  1
  Mo  Mo19  1  0.00000000  0.66666600  0.40000000  1
  Mo  Mo20  1  1.00000000  1.00000000  0.40000000  1
  Mo  Mo21  1  0.33333300  0.33333300  0.40000000  1
  Mo  Mo22  1  0.33333300  0.66666600  0.40000000  1
  Mo  Mo23  1  0.33333300  1.00000000  0.40000000  1
  Mo  Mo24  1  0.66666700  0.33333300  0.40000000  1
  Mo  Mo25  1  0.66666700  0.66666600  0.40000000  1
  Mo  Mo26  1  0.66666700  1.00000000  0.40000000  1
  C  C27  1  0.78846369  0.82698015  0.66620217  1
  H  H28  1  0.74437875  0.85484626  0.71100244  1
  O  O29  1  0.96565697  0.82741372  0.67176198  1
