# generated using pymatgen
data_Ni27CO
_symmetry_space_group_name_H-M   'P 1'
_cell_length_a   7.33150949
_cell_length_b   7.33150889
_cell_length_c   21.99719400
_cell_angle_alpha   90.00513446
_cell_angle_beta   93.17934504
_cell_angle_gamma   119.99848735
_symmetry_Int_Tables_number   1
_chemical_formula_structural   Ni27CO
_chemical_formula_sum   'Ni27 C1 O1'
_cell_volume   1021.87426739
_cell_formula_units_Z   1
loop_
 _symmetry_equiv_pos_site_id
 _symmetry_equiv_pos_as_xyz
  1  'x, y, z'
loop_
 _atom_site_type_symbol
 _atom_site_label
 _atom_site_symmetry_multiplicity
 _atom_site_fract_x
 _atom_site_fract_y
 _atom_site_fract_z
 _atom_site_occupancy
  Ni  Ni0  1  0.09090900  0.04545500  0.40909100  1
  Ni  Ni1  1  0.09090900  0.37878800  0.40909100  1
  Ni  Ni2  1  0.09090900  0.71212100  0.40909100  1
  Ni  Ni3  1  0.42424200  0.04545500  0.40909100  1
  Ni  Ni4  1  0.42424200  0.37878800  0.40909100  1
  Ni  Ni5  1  0.42424200  0.71212100  0.40909100  1
  Ni  Ni6  1  0.75757600  0.04545500  0.40909100  1
  Ni  Ni7  1  0.75757600  0.37878800  0.40909100  1
  Ni  Ni8  1  0.75757600  0.71212100  0.40909100  1
  Ni  Ni9  1  0.33380472  0.16728296  0.50030493  1
  Ni  Ni10  1  0.33678459  0.50165311  0.50085538  1
  Ni  Ni11  1  0.33367199  0.83314310  0.50025633  1
  Ni  Ni12  1  0.66719944  0.16693031  0.50043093  1
  Ni  Ni13  1  0.66537347  0.50206933  0.50104223  1
  Ni  Ni14  1  0.66549451  0.83009496  0.50104117  1
  Ni  Ni15  1  0.00016347  0.16701689  0.50041522  1
  Ni  Ni16  1  0.00009609  0.49975604  0.50038904  1
  Ni  Ni17  1  0.99999330  0.83330225  0.50023842  1
  Ni  Ni18  1  0.24019893  0.28534256  0.59143662  1
  Ni  Ni19  1  0.24042686  0.62164528  0.59138299  1
  Ni  Ni20  1  0.24343333  0.95507415  0.59192609  1
  Ni  Ni21  1  0.57649738  0.28604823  0.59132999  1
  Ni  Ni22  1  0.57815258  0.62255660  0.60036663  1
  Ni  Ni23  1  0.57596880  0.95685245  0.59129199  1
  Ni  Ni24  1  0.90950637  0.28796300  0.59172508  1
  Ni  Ni25  1  0.91239439  0.62220721  0.59127794  1
  Ni  Ni26  1  0.91237900  0.95658864  0.59130494  1
  O  O27  1  0.56491097  0.61114932  0.73137646  1
  C  C28  1  0.57011573  0.61595832  0.67872950  1
