# generated using pymatgen
data_HRh27CO
_symmetry_space_group_name_H-M   'P 1'
_cell_length_a   8.03672266
_cell_length_b   8.03669826
_cell_length_c   21.92791400
_cell_angle_alpha   86.49772645
_cell_angle_beta   86.49795137
_cell_angle_gamma   59.99991575
_symmetry_Int_Tables_number   1
_chemical_formula_structural   HRh27CO
_chemical_formula_sum   'H1 Rh27 C1 O1'
_cell_volume   1223.49202859
_cell_formula_units_Z   1
loop_
 _symmetry_equiv_pos_site_id
 _symmetry_equiv_pos_as_xyz
  1  'x, y, z'
loop_
 _atom_site_type_symbol
 _atom_site_label
 _atom_site_symmetry_multiplicity
 _atom_site_fract_x
 _atom_site_fract_y
 _atom_site_fract_z
 _atom_site_occupancy
  Rh  Rh0  1  0.06666700  0.06666700  0.40000000  1
  Rh  Rh1  1  0.06666700  0.40000000  0.40000000  1
  Rh  Rh2  1  0.06666700  0.73333300  0.40000000  1
  Rh  Rh3  1  0.40000000  0.06666700  0.40000000  1
  Rh  Rh4  1  0.40000000  0.40000000  0.40000000  1
  Rh  Rh5  1  0.40000000  0.73333300  0.40000000  1
  Rh  Rh6  1  0.73333300  0.06666700  0.40000000  1
  Rh  Rh7  1  0.73333300  0.40000000  0.40000000  1
  Rh  Rh8  1  0.73333300  0.73333300  0.40000000  1
  Rh  Rh9  1  0.16745850  0.16744384  0.49852596  1
  Rh  Rh10  1  0.16859382  0.50100402  0.49859747  1
  Rh  Rh11  1  0.16850636  0.83249437  0.49881004  1
  Rh  Rh12  1  0.50095542  0.16852189  0.49865156  1
  Rh  Rh13  1  0.50075982  0.50071416  0.49826023  1
  Rh  Rh14  1  0.50100219  0.83269255  0.49866776  1
  Rh  Rh15  1  0.83277679  0.16838170  0.49873173  1
  Rh  Rh16  1  0.83282627  0.50091504  0.49854687  1
  Rh  Rh17  1  0.83413615  0.83396131  0.49824690  1
  Rh  Rh18  1  0.26608772  0.26614087  0.59672285  1
  Rh  Rh19  1  0.26320713  0.60323612  0.60116774  1
  Rh  Rh20  1  0.26613762  0.93862303  0.59669146  1
  Rh  Rh21  1  0.60347495  0.26308118  0.60118159  1
  Rh  Rh22  1  0.60418745  0.60421264  0.60066343  1
  Rh  Rh23  1  0.60185854  0.93508611  0.59713556  1
  Rh  Rh24  1  0.93883189  0.26605111  0.59666663  1
  Rh  Rh25  1  0.93497822  0.60172611  0.59713556  1
  Rh  Rh26  1  0.93415316  0.93451664  0.59717719  1
  C  C27  1  0.48387754  0.48876276  0.65700076  1
  H  H28  1  0.57324661  0.48997921  0.73729364  1
  O  O29  1  0.47114825  0.47931727  0.71757254  1
