# generated using pymatgen
data_Ni27H
_symmetry_space_group_name_H-M   'P 1'
_cell_length_a   7.33150949
_cell_length_b   7.33150889
_cell_length_c   21.99719400
_cell_angle_alpha   90.00513446
_cell_angle_beta   93.17934504
_cell_angle_gamma   119.99848735
_symmetry_Int_Tables_number   1
_chemical_formula_structural   Ni27H
_chemical_formula_sum   'Ni27 H1'
_cell_volume   1021.87426739
_cell_formula_units_Z   1
loop_
 _symmetry_equiv_pos_site_id
 _symmetry_equiv_pos_as_xyz
  1  'x, y, z'
loop_
 _atom_site_type_symbol
 _atom_site_label
 _atom_site_symmetry_multiplicity
 _atom_site_fract_x
 _atom_site_fract_y
 _atom_site_fract_z
 _atom_site_occupancy
  Ni  Ni0  1  0.09090900  0.04545500  0.40909100  1
  Ni  Ni1  1  0.09090900  0.37878800  0.40909100  1
  Ni  Ni2  1  0.09090900  0.71212100  0.40909100  1
  Ni  Ni3  1  0.42424200  0.04545500  0.40909100  1
  Ni  Ni4  1  0.42424200  0.37878800  0.40909100  1
  Ni  Ni5  1  0.42424200  0.71212100  0.40909100  1
  Ni  Ni6  1  0.75757600  0.04545500  0.40909100  1
  Ni  Ni7  1  0.75757600  0.37878800  0.40909100  1
  Ni  Ni8  1  0.75757600  0.71212100  0.40909100  1
  Ni  Ni9  1  0.33357017  0.16683521  0.50077304  1
  Ni  Ni10  1  0.33362564  0.50050649  0.50078467  1
  Ni  Ni11  1  0.33359454  0.83304803  0.50074687  1
  Ni  Ni12  1  0.66627479  0.16581956  0.50111981  1
  Ni  Ni13  1  0.66627508  0.50044737  0.50111978  1
  Ni  Ni14  1  0.66616286  0.83300338  0.50090503  1
  Ni  Ni15  1  0.99992264  0.16685345  0.50079619  1
  Ni  Ni16  1  0.00036356  0.50016112  0.50096915  1
  Ni  Ni17  1  0.99989808  0.83305314  0.50079209  1
  Ni  Ni18  1  0.24140626  0.28628390  0.59184603  1
  Ni  Ni19  1  0.23956244  0.61982146  0.59295985  1
  Ni  Ni20  1  0.24143619  0.95503276  0.59183464  1
  Ni  Ni21  1  0.57550353  0.28770750  0.59200604  1
  Ni  Ni22  1  0.57669664  0.62010562  0.59363434  1
  Ni  Ni23  1  0.57664479  0.95652811  0.59358526  1
  Ni  Ni24  1  0.90854813  0.28733293  0.59198457  1
  Ni  Ni25  1  0.90858064  0.62125050  0.59198229  1
  Ni  Ni26  1  0.90999530  0.95496625  0.59186222  1
  H  H27  1  0.47145642  0.73575842  0.63531103  1
