# generated using pymatgen
data_Ni27O
_symmetry_space_group_name_H-M   'P 1'
_cell_length_a   7.33150949
_cell_length_b   7.33150889
_cell_length_c   21.99719400
_cell_angle_alpha   90.00513446
_cell_angle_beta   93.17934504
_cell_angle_gamma   119.99848735
_symmetry_Int_Tables_number   1
_chemical_formula_structural   Ni27O
_chemical_formula_sum   'Ni27 O1'
_cell_volume   1021.87426739
_cell_formula_units_Z   1
loop_
 _symmetry_equiv_pos_site_id
 _symmetry_equiv_pos_as_xyz
  1  'x, y, z'
loop_
 _atom_site_type_symbol
 _atom_site_label
 _atom_site_symmetry_multiplicity
 _atom_site_fract_x
 _atom_site_fract_y
 _atom_site_fract_z
 _atom_site_occupancy
  Ni  Ni0  1  0.09090900  0.04545500  0.40909100  1
  Ni  Ni1  1  0.09090900  0.37878800  0.40909100  1
  Ni  Ni2  1  0.09090900  0.71212100  0.40909100  1
  Ni  Ni3  1  0.42424200  0.04545500  0.40909100  1
  Ni  Ni4  1  0.42424200  0.37878800  0.40909100  1
  Ni  Ni5  1  0.42424200  0.71212100  0.40909100  1
  Ni  Ni6  1  0.75757600  0.04545500  0.40909100  1
  Ni  Ni7  1  0.75757600  0.37878800  0.40909100  1
  Ni  Ni8  1  0.75757600  0.71212100  0.40909100  1
  Ni  Ni9  1  0.33279234  0.16735961  0.50150794  1
  Ni  Ni10  1  0.33387416  0.49999502  0.50041932  1
  Ni  Ni11  1  0.33272684  0.83149143  0.50149431  1
  Ni  Ni12  1  0.66690913  0.16649258  0.49869013  1
  Ni  Ni13  1  0.66701907  0.50146139  0.50153107  1
  Ni  Ni14  1  0.66711335  0.83151876  0.50150648  1
  Ni  Ni15  1  0.00272688  0.16726921  0.50151206  1
  Ni  Ni16  1  0.00257137  0.50140958  0.50153739  1
  Ni  Ni17  1  0.00057996  0.83327407  0.50030549  1
  Ni  Ni18  1  0.24295806  0.28521254  0.59683580  1
  Ni  Ni19  1  0.24298068  0.62362968  0.59678818  1
  Ni  Ni20  1  0.24188861  0.95382221  0.59180468  1
  Ni  Ni21  1  0.57908241  0.28518174  0.59098267  1
  Ni  Ni22  1  0.58099421  0.62346819  0.59681397  1
  Ni  Ni23  1  0.57913549  0.95957885  0.59096739  1
  Ni  Ni24  1  0.90501143  0.28526793  0.59098391  1
  Ni  Ni25  1  0.91068459  0.62280230  0.59186123  1
  Ni  Ni26  1  0.91074917  0.95377920  0.59185973  1
  O  O27  1  0.36776134  0.51688705  0.65192516  1
