# generated using pymatgen
data_Ni27HO
_symmetry_space_group_name_H-M   'P 1'
_cell_length_a   7.33150949
_cell_length_b   7.33150889
_cell_length_c   21.99719400
_cell_angle_alpha   90.00513446
_cell_angle_beta   93.17934504
_cell_angle_gamma   119.99848735
_symmetry_Int_Tables_number   1
_chemical_formula_structural   Ni27HO
_chemical_formula_sum   'Ni27 H1 O1'
_cell_volume   1021.87426739
_cell_formula_units_Z   1
loop_
 _symmetry_equiv_pos_site_id
 _symmetry_equiv_pos_as_xyz
  1  'x, y, z'
loop_
 _atom_site_type_symbol
 _atom_site_label
 _atom_site_symmetry_multiplicity
 _atom_site_fract_x
 _atom_site_fract_y
 _atom_site_fract_z
 _atom_site_occupancy
  Ni  Ni0  1  0.09090900  0.04545500  0.40909100  1
  Ni  Ni1  1  0.09090900  0.37878800  0.40909100  1
  Ni  Ni2  1  0.09090900  0.71212100  0.40909100  1
  Ni  Ni3  1  0.42424200  0.04545500  0.40909100  1
  Ni  Ni4  1  0.42424200  0.37878800  0.40909100  1
  Ni  Ni5  1  0.42424200  0.71212100  0.40909100  1
  Ni  Ni6  1  0.75757600  0.04545500  0.40909100  1
  Ni  Ni7  1  0.75757600  0.37878800  0.40909100  1
  Ni  Ni8  1  0.75757600  0.71212100  0.40909100  1
  Ni  Ni9  1  0.33348835  0.16768470  0.50130523  1
  Ni  Ni10  1  0.33404563  0.50042536  0.50009107  1
  Ni  Ni11  1  0.33252972  0.83101442  0.50132920  1
  Ni  Ni12  1  0.66725843  0.16625838  0.49926026  1
  Ni  Ni13  1  0.66725395  0.50154829  0.50090013  1
  Ni  Ni14  1  0.66799815  0.83251979  0.50087789  1
  Ni  Ni15  1  0.00429888  0.16816164  0.50128557  1
  Ni  Ni16  1  0.99998500  0.49999800  0.50003300  1
  Ni  Ni17  1  0.99991600  0.83301700  0.50012700  1
  Ni  Ni18  1  0.24636709  0.28614727  0.59562671  1
  Ni  Ni19  1  0.24563525  0.62551169  0.59537304  1
  Ni  Ni20  1  0.24637484  0.95600807  0.59156518  1
  Ni  Ni21  1  0.58241382  0.28779046  0.59082022  1
  Ni  Ni22  1  0.58739066  0.62676444  0.59376601  1
  Ni  Ni23  1  0.58212977  0.96037177  0.59080356  1
  Ni  Ni24  1  0.90985850  0.28802227  0.59075943  1
  Ni  Ni25  1  0.91495627  0.62373427  0.59128687  1
  Ni  Ni26  1  0.91494833  0.95699143  0.59148697  1
  O  O27  1  0.37953915  0.52293442  0.65360807  1
  H  H28  1  0.40037412  0.53330053  0.69885057  1
