# generated using pymatgen
data_Mo12HS16
_symmetry_space_group_name_H-M   'P 1'
_cell_length_a   6.40582443
_cell_length_b   6.40502189
_cell_length_c   27.80788600
_cell_angle_alpha   91.26713631
_cell_angle_beta   91.36148131
_cell_angle_gamma   91.33958978
_symmetry_Int_Tables_number   1
_chemical_formula_structural   Mo12HS16
_chemical_formula_sum   'Mo12 H1 S16'
_cell_volume   1140.01494538
_cell_formula_units_Z   1
loop_
 _symmetry_equiv_pos_site_id
 _symmetry_equiv_pos_as_xyz
  1  'x, y, z'
loop_
 _atom_site_type_symbol
 _atom_site_label
 _atom_site_symmetry_multiplicity
 _atom_site_fract_x
 _atom_site_fract_y
 _atom_site_fract_z
 _atom_site_occupancy
  Mo  Mo0  1  0.21053600  0.55052600  0.34322700  1
  Mo  Mo1  1  0.21225453  0.55197390  0.57315100  1
  Mo  Mo2  1  0.78866082  0.44839055  0.38694827  1
  Mo  Mo3  1  0.79262818  0.43900892  0.61803891  1
  Mo  Mo4  1  0.40845579  0.21434938  0.37687410  1
  Mo  Mo5  1  0.41092871  0.20234008  0.60663975  1
  Mo  Mo6  1  0.59470900  0.78943200  0.35357800  1
  Mo  Mo7  1  0.59411967  0.79051054  0.58303683  1
  Mo  Mo8  1  0.55045000  0.40548900  0.29849800  1
  Mo  Mo9  1  0.54848064  0.40890780  0.52958175  1
  Mo  Mo10  1  0.45209771  0.59647302  0.43187918  1
  Mo  Mo11  1  0.46203789  0.57407747  0.65918331  1
  S  S12  1  0.13363761  0.38756688  0.41992954  1
  S  S13  1  0.13825659  0.38087075  0.64932767  1
  S  S14  1  0.86792400  0.61363500  0.31056000  1
  S  S15  1  0.86796385  0.61271718  0.54182021  1
  S  S16  1  0.73733500  0.13203700  0.33909000  1
  S  S17  1  0.73932689  0.12976635  0.56820051  1
  S  S18  1  0.26285977  0.86991352  0.39132817  1
  S  S19  1  0.27307680  0.86111925  0.62520197  1
  S  S20  1  0.38668300  0.73747600  0.28032400  1
  S  S21  1  0.38271329  0.74404723  0.51053493  1
  S  S22  1  0.61526257  0.26397531  0.45044379  1
  S  S23  1  0.61825005  0.24341170  0.68040416  1
  S  S24  1  0.21767900  0.21800500  0.30009800  1
  S  S25  1  0.21387357  0.21620312  0.53118947  1
  S  S26  1  0.78602539  0.78107091  0.43060933  1
  S  S27  1  0.78645446  0.77858066  0.65855557  1
  H  H28  1  0.44396350  0.63471180  0.72041597  1
