# generated using pymatgen
data_Ni27CO2
_symmetry_space_group_name_H-M   'P 1'
_cell_length_a   7.33150949
_cell_length_b   7.33150889
_cell_length_c   21.99719400
_cell_angle_alpha   90.00513446
_cell_angle_beta   93.17934504
_cell_angle_gamma   119.99848735
_symmetry_Int_Tables_number   1
_chemical_formula_structural   Ni27CO2
_chemical_formula_sum   'Ni27 C1 O2'
_cell_volume   1021.87426739
_cell_formula_units_Z   1
loop_
 _symmetry_equiv_pos_site_id
 _symmetry_equiv_pos_as_xyz
  1  'x, y, z'
loop_
 _atom_site_type_symbol
 _atom_site_label
 _atom_site_symmetry_multiplicity
 _atom_site_fract_x
 _atom_site_fract_y
 _atom_site_fract_z
 _atom_site_occupancy
  Ni  Ni0  1  0.09090900  0.04545500  0.40909100  1
  Ni  Ni1  1  0.09090900  0.37878800  0.40909100  1
  Ni  Ni2  1  0.09090900  0.71212100  0.40909100  1
  Ni  Ni3  1  0.42424200  0.04545500  0.40909100  1
  Ni  Ni4  1  0.42424200  0.37878800  0.40909100  1
  Ni  Ni5  1  0.42424200  0.71212100  0.40909100  1
  Ni  Ni6  1  0.75757600  0.04545500  0.40909100  1
  Ni  Ni7  1  0.75757600  0.37878800  0.40909100  1
  Ni  Ni8  1  0.75757600  0.71212100  0.40909100  1
  Ni  Ni9  1  0.33372876  0.16724596  0.50065587  1
  Ni  Ni10  1  0.33597669  0.50122285  0.50150068  1
  Ni  Ni11  1  0.33401932  0.83310447  0.50058607  1
  Ni  Ni12  1  0.66682140  0.16666711  0.50080817  1
  Ni  Ni13  1  0.66597761  0.50132966  0.50151445  1
  Ni  Ni14  1  0.66578755  0.83084557  0.50130076  1
  Ni  Ni15  1  0.00047213  0.16687830  0.50092128  1
  Ni  Ni16  1  0.00015617  0.50013593  0.50029315  1
  Ni  Ni17  1  0.99949138  0.83301314  0.50052818  1
  Ni  Ni18  1  0.24194669  0.28688632  0.59224896  1
  Ni  Ni19  1  0.24145730  0.62157397  0.59181295  1
  Ni  Ni20  1  0.24230817  0.95387128  0.59162889  1
  Ni  Ni21  1  0.57633188  0.28712428  0.59193921  1
  Ni  Ni22  1  0.57701171  0.62161111  0.59870279  1
  Ni  Ni23  1  0.57603549  0.95529339  0.59197181  1
  Ni  Ni24  1  0.90963574  0.28869367  0.59183462  1
  Ni  Ni25  1  0.91030837  0.62170124  0.59187041  1
  Ni  Ni26  1  0.91035577  0.95497016  0.59181937  1
  C  C27  1  0.57966585  0.62339596  0.68540449  1
  O  O28  1  0.67069650  0.80308096  0.71146734  1
  O  O29  1  0.49226001  0.44679723  0.71008907  1
