# generated using pymatgen
data_Mo12CS16O
_symmetry_space_group_name_H-M   'P 1'
_cell_length_a   6.40582443
_cell_length_b   6.40502189
_cell_length_c   27.80788600
_cell_angle_alpha   91.26713631
_cell_angle_beta   91.36148131
_cell_angle_gamma   91.33958978
_symmetry_Int_Tables_number   1
_chemical_formula_structural   Mo12CS16O
_chemical_formula_sum   'Mo12 C1 S16 O1'
_cell_volume   1140.01494538
_cell_formula_units_Z   1
loop_
 _symmetry_equiv_pos_site_id
 _symmetry_equiv_pos_as_xyz
  1  'x, y, z'
loop_
 _atom_site_type_symbol
 _atom_site_label
 _atom_site_symmetry_multiplicity
 _atom_site_fract_x
 _atom_site_fract_y
 _atom_site_fract_z
 _atom_site_occupancy
  Mo  Mo0  1  0.21053600  0.55052600  0.34322700  1
  Mo  Mo1  1  0.21071958  0.55264396  0.57298218  1
  Mo  Mo2  1  0.78913568  0.44838995  0.38689651  1
  Mo  Mo3  1  0.79228499  0.44110338  0.61733348  1
  Mo  Mo4  1  0.40839759  0.21390728  0.37670478  1
  Mo  Mo5  1  0.41251898  0.20696909  0.60622277  1
  Mo  Mo6  1  0.59470900  0.78943200  0.35357800  1
  Mo  Mo7  1  0.59521571  0.78642759  0.58369985  1
  Mo  Mo8  1  0.55045000  0.40548900  0.29849800  1
  Mo  Mo9  1  0.54814524  0.40660566  0.52881262  1
  Mo  Mo10  1  0.45195628  0.59555781  0.43158067  1
  Mo  Mo11  1  0.45347663  0.57619380  0.66029252  1
  S  S12  1  0.13395111  0.38720059  0.41987477  1
  S  S13  1  0.13478464  0.37740876  0.64801204  1
  S  S14  1  0.86792400  0.61363500  0.31056000  1
  S  S15  1  0.86750779  0.60980695  0.54071173  1
  S  S16  1  0.73733500  0.13203700  0.33909000  1
  S  S17  1  0.74096909  0.12791188  0.56753840  1
  S  S18  1  0.26287128  0.86983461  0.39125073  1
  S  S19  1  0.27071916  0.86414281  0.62399333  1
  S  S20  1  0.38668300  0.73747600  0.28032400  1
  S  S21  1  0.38487077  0.74164266  0.51034412  1
  S  S22  1  0.61617695  0.26264734  0.45004493  1
  S  S23  1  0.62126915  0.24783452  0.67971673  1
  S  S24  1  0.21767900  0.21800500  0.30009800  1
  S  S25  1  0.21437431  0.21808173  0.53016290  1
  S  S26  1  0.78621437  0.78131790  0.43046888  1
  S  S27  1  0.78395543  0.77364170  0.66006909  1
  O  O28  1  0.43754548  0.60781424  0.77494522  1
  C  C29  1  0.43986563  0.60829212  0.73328140  1
