# generated using pymatgen
data_Mo12HS16
_symmetry_space_group_name_H-M   'P 1'
_cell_length_a   6.40582443
_cell_length_b   6.40502189
_cell_length_c   27.80788600
_cell_angle_alpha   91.26713631
_cell_angle_beta   91.36148131
_cell_angle_gamma   91.33958978
_symmetry_Int_Tables_number   1
_chemical_formula_structural   Mo12HS16
_chemical_formula_sum   'Mo12 H1 S16'
_cell_volume   1140.01494538
_cell_formula_units_Z   1
loop_
 _symmetry_equiv_pos_site_id
 _symmetry_equiv_pos_as_xyz
  1  'x, y, z'
loop_
 _atom_site_type_symbol
 _atom_site_label
 _atom_site_symmetry_multiplicity
 _atom_site_fract_x
 _atom_site_fract_y
 _atom_site_fract_z
 _atom_site_occupancy
  Mo  Mo0  1  0.21053600  0.55052600  0.34322700  1
  Mo  Mo1  1  0.21096958  0.55186769  0.57303350  1
  Mo  Mo2  1  0.78730130  0.44818837  0.38678381  1
  Mo  Mo3  1  0.79280065  0.43921946  0.61765067  1
  Mo  Mo4  1  0.40788236  0.21347781  0.37676525  1
  Mo  Mo5  1  0.41230348  0.20451666  0.60644724  1
  Mo  Mo6  1  0.59470900  0.78943200  0.35357800  1
  Mo  Mo7  1  0.59557236  0.78791896  0.58325709  1
  Mo  Mo8  1  0.55045000  0.40548900  0.29849800  1
  Mo  Mo9  1  0.54880208  0.40649697  0.52915640  1
  Mo  Mo10  1  0.45087605  0.59499300  0.43175973  1
  Mo  Mo11  1  0.45879519  0.57559631  0.65927244  1
  S  S12  1  0.13263846  0.38639044  0.41995951  1
  S  S13  1  0.13798031  0.37975551  0.64869453  1
  S  S14  1  0.86792400  0.61363500  0.31056000  1
  S  S15  1  0.86763436  0.61068683  0.54132002  1
  S  S16  1  0.73733500  0.13203700  0.33909000  1
  S  S17  1  0.74060254  0.12854923  0.56827206  1
  S  S18  1  0.26286951  0.86907128  0.39149634  1
  S  S19  1  0.27229855  0.86248732  0.62445767  1
  S  S20  1  0.38668300  0.73747600  0.28032400  1
  S  S21  1  0.38384885  0.74159603  0.51065024  1
  S  S22  1  0.61467385  0.26266323  0.45013547  1
  S  S23  1  0.61970603  0.24847232  0.68117482  1
  S  S24  1  0.21767900  0.21800500  0.30009800  1
  S  S25  1  0.21475006  0.21639214  0.53084291  1
  S  S26  1  0.78406605  0.78149691  0.43048161  1
  S  S27  1  0.78640504  0.77509348  0.65975966  1
  H  H28  1  0.42732739  0.63983457  0.72090406  1
