# generated using pymatgen
data_Ni27HO2
_symmetry_space_group_name_H-M   'P 1'
_cell_length_a   7.33150949
_cell_length_b   7.33150889
_cell_length_c   21.99719400
_cell_angle_alpha   90.00513446
_cell_angle_beta   93.17934504
_cell_angle_gamma   119.99848735
_symmetry_Int_Tables_number   1
_chemical_formula_structural   Ni27HO2
_chemical_formula_sum   'Ni27 H1 O2'
_cell_volume   1021.87426739
_cell_formula_units_Z   1
loop_
 _symmetry_equiv_pos_site_id
 _symmetry_equiv_pos_as_xyz
  1  'x, y, z'
loop_
 _atom_site_type_symbol
 _atom_site_label
 _atom_site_symmetry_multiplicity
 _atom_site_fract_x
 _atom_site_fract_y
 _atom_site_fract_z
 _atom_site_occupancy
  Ni  Ni0  1  0.09090900  0.04545500  0.40909100  1
  Ni  Ni1  1  0.09090900  0.37878800  0.40909100  1
  Ni  Ni2  1  0.09090900  0.71212100  0.40909100  1
  Ni  Ni3  1  0.42424200  0.04545500  0.40909100  1
  Ni  Ni4  1  0.42424200  0.37878800  0.40909100  1
  Ni  Ni5  1  0.42424200  0.71212100  0.40909100  1
  Ni  Ni6  1  0.75757600  0.04545500  0.40909100  1
  Ni  Ni7  1  0.75757600  0.37878800  0.40909100  1
  Ni  Ni8  1  0.75757600  0.71212100  0.40909100  1
  Ni  Ni9  1  0.33298987  0.16653722  0.50031340  1
  Ni  Ni10  1  0.33522153  0.50069687  0.50166100  1
  Ni  Ni11  1  0.33268930  0.83207320  0.50058245  1
  Ni  Ni12  1  0.66597644  0.16616965  0.49981719  1
  Ni  Ni13  1  0.66480254  0.50137862  0.50208557  1
  Ni  Ni14  1  0.66467970  0.82946759  0.50208192  1
  Ni  Ni15  1  0.99887001  0.16580356  0.50001107  1
  Ni  Ni16  1  0.99985144  0.49962787  0.50095006  1
  Ni  Ni17  1  0.99897478  0.83262810  0.50033180  1
  Ni  Ni18  1  0.23754035  0.28205478  0.59120242  1
  Ni  Ni19  1  0.24074647  0.62055523  0.59235766  1
  Ni  Ni20  1  0.24151672  0.95311857  0.59166175  1
  Ni  Ni21  1  0.57498046  0.28418804  0.59145728  1
  Ni  Ni22  1  0.57695401  0.61974872  0.59943364  1
  Ni  Ni23  1  0.57520343  0.95538214  0.59135955  1
  Ni  Ni24  1  0.90738125  0.28563893  0.59160281  1
  Ni  Ni25  1  0.91030031  0.62127409  0.59166563  1
  Ni  Ni26  1  0.90951191  0.95424602  0.59174907  1
  O  O27  1  0.50736903  0.56754181  0.68009279  1
  O  O28  1  0.66956694  0.72339386  0.72765684  1
  H  H29  1  0.69873396  0.85901544  0.70993671  1
