# generated using pymatgen
data_HRh27CO
_symmetry_space_group_name_H-M   'P 1'
_cell_length_a   8.03672266
_cell_length_b   8.03669826
_cell_length_c   21.92791400
_cell_angle_alpha   86.49772645
_cell_angle_beta   86.49795137
_cell_angle_gamma   59.99991575
_symmetry_Int_Tables_number   1
_chemical_formula_structural   HRh27CO
_chemical_formula_sum   'H1 Rh27 C1 O1'
_cell_volume   1223.49202859
_cell_formula_units_Z   1
loop_
 _symmetry_equiv_pos_site_id
 _symmetry_equiv_pos_as_xyz
  1  'x, y, z'
loop_
 _atom_site_type_symbol
 _atom_site_label
 _atom_site_symmetry_multiplicity
 _atom_site_fract_x
 _atom_site_fract_y
 _atom_site_fract_z
 _atom_site_occupancy
  Rh  Rh0  1  0.06666700  0.06666700  0.40000000  1
  Rh  Rh1  1  0.06666700  0.40000000  0.40000000  1
  Rh  Rh2  1  0.06666700  0.73333300  0.40000000  1
  Rh  Rh3  1  0.40000000  0.06666700  0.40000000  1
  Rh  Rh4  1  0.40000000  0.40000000  0.40000000  1
  Rh  Rh5  1  0.40000000  0.73333300  0.40000000  1
  Rh  Rh6  1  0.73333300  0.06666700  0.40000000  1
  Rh  Rh7  1  0.73333300  0.40000000  0.40000000  1
  Rh  Rh8  1  0.73333300  0.73333300  0.40000000  1
  Rh  Rh9  1  0.16753082  0.16688700  0.49808285  1
  Rh  Rh10  1  0.16867528  0.50063854  0.49900829  1
  Rh  Rh11  1  0.16886006  0.83104575  0.49917809  1
  Rh  Rh12  1  0.50162459  0.16768312  0.49898799  1
  Rh  Rh13  1  0.50091802  0.50000684  0.49824550  1
  Rh  Rh14  1  0.50154097  0.83138926  0.49900333  1
  Rh  Rh15  1  0.83244956  0.16761008  0.49910688  1
  Rh  Rh16  1  0.83268704  0.50046224  0.49898535  1
  Rh  Rh17  1  0.83431566  0.83320207  0.49853575  1
  Rh  Rh18  1  0.26631125  0.26469461  0.59701895  1
  Rh  Rh19  1  0.26392901  0.60155128  0.60183663  1
  Rh  Rh20  1  0.26645536  0.93725570  0.59701207  1
  Rh  Rh21  1  0.60375064  0.26168118  0.60181088  1
  Rh  Rh22  1  0.60404989  0.60252446  0.60118783  1
  Rh  Rh23  1  0.60182034  0.93380579  0.59758815  1
  Rh  Rh24  1  0.93932363  0.26466338  0.59726099  1
  Rh  Rh25  1  0.93542690  0.59987202  0.59779938  1
  Rh  Rh26  1  0.93474045  0.93320493  0.59759030  1
  C  C27  1  0.48477340  0.48579873  0.65692262  1
  H  H28  1  0.58099350  0.48846861  0.73610354  1
  O  O29  1  0.47455652  0.47793663  0.71933164  1
