# generated using pymatgen
data_Ni27HN2
_symmetry_space_group_name_H-M   'P 1'
_cell_length_a   7.33150949
_cell_length_b   7.33150889
_cell_length_c   21.99719400
_cell_angle_alpha   90.00513446
_cell_angle_beta   93.17934504
_cell_angle_gamma   119.99848735
_symmetry_Int_Tables_number   1
_chemical_formula_structural   Ni27HN2
_chemical_formula_sum   'Ni27 H1 N2'
_cell_volume   1021.87426739
_cell_formula_units_Z   1
loop_
 _symmetry_equiv_pos_site_id
 _symmetry_equiv_pos_as_xyz
  1  'x, y, z'
loop_
 _atom_site_type_symbol
 _atom_site_label
 _atom_site_symmetry_multiplicity
 _atom_site_fract_x
 _atom_site_fract_y
 _atom_site_fract_z
 _atom_site_occupancy
  Ni  Ni0  1  0.09090900  0.04545500  0.40909100  1
  Ni  Ni1  1  0.09090900  0.37878800  0.40909100  1
  Ni  Ni2  1  0.09090900  0.71212100  0.40909100  1
  Ni  Ni3  1  0.42424200  0.04545500  0.40909100  1
  Ni  Ni4  1  0.42424200  0.37878800  0.40909100  1
  Ni  Ni5  1  0.42424200  0.71212100  0.40909100  1
  Ni  Ni6  1  0.75757600  0.04545500  0.40909100  1
  Ni  Ni7  1  0.75757600  0.37878800  0.40909100  1
  Ni  Ni8  1  0.75757600  0.71212100  0.40909100  1
  Ni  Ni9  1  0.33394318  0.16733830  0.50020991  1
  Ni  Ni10  1  0.33796296  0.50249016  0.50232619  1
  Ni  Ni11  1  0.33390134  0.83350654  0.50015036  1
  Ni  Ni12  1  0.66700717  0.16706962  0.49950307  1
  Ni  Ni13  1  0.66600749  0.50263785  0.50235603  1
  Ni  Ni14  1  0.66599400  0.83041460  0.50207702  1
  Ni  Ni15  1  0.00020922  0.16698887  0.49948172  1
  Ni  Ni16  1  0.00027005  0.50034017  0.49953795  1
  Ni  Ni17  1  0.00039473  0.83356510  0.50014403  1
  Ni  Ni18  1  0.23914783  0.28386073  0.59110598  1
  Ni  Ni19  1  0.24005443  0.62194165  0.59118588  1
  Ni  Ni20  1  0.24341500  0.95495244  0.59164241  1
  Ni  Ni21  1  0.57580281  0.28420103  0.59112034  1
  Ni  Ni22  1  0.57787858  0.62176461  0.60470646  1
  Ni  Ni23  1  0.57578708  0.95729910  0.59104084  1
  Ni  Ni24  1  0.90919385  0.28769741  0.59097220  1
  Ni  Ni25  1  0.91305752  0.62229992  0.59122827  1
  Ni  Ni26  1  0.91283492  0.95711191  0.59107384  1
  N  N27  1  0.59228706  0.62609732  0.68211860  1
  N  N28  1  0.58055055  0.62666727  0.73494763  1
  H  H29  1  0.68791947  0.63149754  0.76940171  1
