# generated using pymatgen
data_Mo12HS16
_symmetry_space_group_name_H-M   'P 1'
_cell_length_a   6.40582443
_cell_length_b   6.40502189
_cell_length_c   27.80788600
_cell_angle_alpha   91.26713631
_cell_angle_beta   91.36148131
_cell_angle_gamma   91.33958978
_symmetry_Int_Tables_number   1
_chemical_formula_structural   Mo12HS16
_chemical_formula_sum   'Mo12 H1 S16'
_cell_volume   1140.01494538
_cell_formula_units_Z   1
loop_
 _symmetry_equiv_pos_site_id
 _symmetry_equiv_pos_as_xyz
  1  'x, y, z'
loop_
 _atom_site_type_symbol
 _atom_site_label
 _atom_site_symmetry_multiplicity
 _atom_site_fract_x
 _atom_site_fract_y
 _atom_site_fract_z
 _atom_site_occupancy
  Mo  Mo0  1  0.21053600  0.55052600  0.34322700  1
  Mo  Mo1  1  0.21155181  0.55224585  0.57322063  1
  Mo  Mo2  1  0.78772435  0.44838305  0.38687495  1
  Mo  Mo3  1  0.79133085  0.43962484  0.61796994  1
  Mo  Mo4  1  0.40805654  0.21430435  0.37685740  1
  Mo  Mo5  1  0.41070200  0.20331691  0.60660713  1
  Mo  Mo6  1  0.59470900  0.78943200  0.35357800  1
  Mo  Mo7  1  0.59428300  0.78974565  0.58321278  1
  Mo  Mo8  1  0.55045000  0.40548900  0.29849800  1
  Mo  Mo9  1  0.54807741  0.40834415  0.52950907  1
  Mo  Mo10  1  0.45151803  0.59611359  0.43179354  1
  Mo  Mo11  1  0.46004859  0.57481970  0.65935645  1
  S  S12  1  0.13289721  0.38736900  0.41997508  1
  S  S13  1  0.13687546  0.38089048  0.64917824  1
  S  S14  1  0.86792400  0.61363500  0.31056000  1
  S  S15  1  0.86756400  0.61223250  0.54168525  1
  S  S16  1  0.73733500  0.13203700  0.33909000  1
  S  S17  1  0.73949319  0.12956725  0.56829416  1
  S  S18  1  0.26282864  0.86979095  0.39125331  1
  S  S19  1  0.27205775  0.86187188  0.62504111  1
  S  S20  1  0.38668300  0.73747600  0.28032400  1
  S  S21  1  0.38266272  0.74367554  0.51064302  1
  S  S22  1  0.61528679  0.26344285  0.45036773  1
  S  S23  1  0.61766189  0.24524526  0.68075636  1
  S  S24  1  0.21767900  0.21800500  0.30009800  1
  S  S25  1  0.21361444  0.21645356  0.53113460  1
  S  S26  1  0.78525957  0.78170631  0.43048521  1
  S  S27  1  0.78562835  0.77771267  0.65917500  1
  H  H28  1  0.43881112  0.63418232  0.72092474  1
