# generated using pymatgen
data_Rh27O
_symmetry_space_group_name_H-M   'P 1'
_cell_length_a   8.03675400
_cell_length_b   8.03670000
_cell_length_c   22.73128200
_cell_angle_alpha   89.99972196
_cell_angle_beta   89.99972196
_cell_angle_gamma   89.99991445
_symmetry_Int_Tables_number   1
_chemical_formula_structural   Rh27O
_chemical_formula_sum   'Rh27 O1'
_cell_volume   1468.19033829
_cell_formula_units_Z   1
loop_
 _symmetry_equiv_pos_site_id
 _symmetry_equiv_pos_as_xyz
  1  'x, y, z'
loop_
 _atom_site_type_symbol
 _atom_site_label
 _atom_site_symmetry_multiplicity
 _atom_site_fract_x
 _atom_site_fract_y
 _atom_site_fract_z
 _atom_site_occupancy
  Rh  Rh0  1  0.99999900  0.99999800  0.45662600  1
  Rh  Rh1  1  0.99999800  0.33332900  0.45662400  1
  Rh  Rh2  1  0.99999800  0.66666800  0.45662400  1
  Rh  Rh3  1  0.33332900  0.99999800  0.45662400  1
  Rh  Rh4  1  0.33333000  0.33333000  0.45662200  1
  Rh  Rh5  1  0.33333000  0.66666700  0.45662200  1
  Rh  Rh6  1  0.66666700  0.99999800  0.45662400  1
  Rh  Rh7  1  0.66666600  0.33333000  0.45662200  1
  Rh  Rh8  1  0.66666700  0.66666600  0.45662200  1
  Rh  Rh9  1  0.16666700  0.16666700  0.37500000  1
  Rh  Rh10  1  0.16666700  0.50000000  0.37500000  1
  Rh  Rh11  1  0.16666700  0.83333300  0.37500000  1
  Rh  Rh12  1  0.50000000  0.16666700  0.37500000  1
  Rh  Rh13  1  0.50000000  0.50000000  0.37500000  1
  Rh  Rh14  1  0.50000000  0.83333300  0.37500000  1
  Rh  Rh15  1  0.83333300  0.16666700  0.37500000  1
  Rh  Rh16  1  0.83333300  0.50000000  0.37500000  1
  Rh  Rh17  1  0.83333300  0.83333300  0.37500000  1
  Rh  Rh18  1  0.16592247  0.16592305  0.53799690  1
  Rh  Rh19  1  0.16395722  0.49999720  0.53819217  1
  Rh  Rh20  1  0.16592153  0.83407102  0.53799719  1
  Rh  Rh21  1  0.49999680  0.16395746  0.53819223  1
  Rh  Rh22  1  0.49999496  0.49999643  0.53929168  1
  Rh  Rh23  1  0.49999694  0.83603654  0.53819229  1
  Rh  Rh24  1  0.83407183  0.16592213  0.53799673  1
  Rh  Rh25  1  0.83603688  0.49999651  0.53819228  1
  Rh  Rh26  1  0.83407133  0.83407204  0.53799726  1
  O  O27  1  0.49998409  0.49998725  0.61912111  1
