# generated using pymatgen
data_Mo27H
_symmetry_space_group_name_H-M   'P 1'
_cell_length_a   8.13431400
_cell_length_b   8.13432797
_cell_length_c   22.13894100
_cell_angle_alpha   90.00084524
_cell_angle_beta   90.00084525
_cell_angle_gamma   109.47202259
_symmetry_Int_Tables_number   1
_chemical_formula_structural   Mo27H
_chemical_formula_sum   'Mo27 H1'
_cell_volume   1381.08702123
_cell_formula_units_Z   1
loop_
 _symmetry_equiv_pos_site_id
 _symmetry_equiv_pos_as_xyz
  1  'x, y, z'
loop_
 _atom_site_type_symbol
 _atom_site_label
 _atom_site_symmetry_multiplicity
 _atom_site_fract_x
 _atom_site_fract_y
 _atom_site_fract_z
 _atom_site_occupancy
  Mo  Mo0  1  0.99919430  0.33376426  0.59496499  1
  Mo  Mo1  1  0.00022433  0.66652063  0.59536758  1
  Mo  Mo2  1  0.99881135  0.99881072  0.59423231  1
  Mo  Mo3  1  0.33414859  0.33414805  0.59423112  1
  Mo  Mo4  1  0.33274324  0.66645076  0.59536810  1
  Mo  Mo5  1  0.33376459  0.99919389  0.59496494  1
  Mo  Mo6  1  0.66645110  0.33274256  0.59536802  1
  Mo  Mo7  1  0.66649895  0.66649784  0.59762035  1
  Mo  Mo8  1  0.66652106  0.00022378  0.59536761  1
  Mo  Mo9  1  0.16659247  0.16659212  0.49778885  1
  Mo  Mo10  1  0.16591001  0.50008657  0.49748301  1
  Mo  Mo11  1  0.16728790  0.83309961  0.49748229  1
  Mo  Mo12  1  0.50008695  0.16590943  0.49748293  1
  Mo  Mo13  1  0.49762619  0.49762566  0.49626398  1
  Mo  Mo14  1  0.50037811  0.83281656  0.49764441  1
  Mo  Mo15  1  0.83310000  0.16728730  0.49748237  1
  Mo  Mo16  1  0.83281713  0.50037754  0.49764438  1
  Mo  Mo17  1  0.83556382  0.83556319  0.49626414  1
  Mo  Mo18  1  0.00000000  0.33333300  0.40000000  1
  Mo  Mo19  1  0.00000000  0.66666600  0.40000000  1
  Mo  Mo20  1  1.00000000  1.00000000  0.40000000  1
  Mo  Mo21  1  0.33333300  0.33333300  0.40000000  1
  Mo  Mo22  1  0.33333300  0.66666600  0.40000000  1
  Mo  Mo23  1  0.33333300  1.00000000  0.40000000  1
  Mo  Mo24  1  0.66666700  0.33333300  0.40000000  1
  Mo  Mo25  1  0.66666700  0.66666600  0.40000000  1
  Mo  Mo26  1  0.66666700  1.00000000  0.40000000  1
  H  H27  1  0.66640815  0.66641448  0.67696469  1
