# generated using pymatgen
data_Ni27HCO
_symmetry_space_group_name_H-M   'P 1'
_cell_length_a   7.33150949
_cell_length_b   7.33150889
_cell_length_c   21.99719400
_cell_angle_alpha   90.00513446
_cell_angle_beta   93.17934504
_cell_angle_gamma   119.99848735
_symmetry_Int_Tables_number   1
_chemical_formula_structural   Ni27HCO
_chemical_formula_sum   'Ni27 H1 C1 O1'
_cell_volume   1021.87426739
_cell_formula_units_Z   1
loop_
 _symmetry_equiv_pos_site_id
 _symmetry_equiv_pos_as_xyz
  1  'x, y, z'
loop_
 _atom_site_type_symbol
 _atom_site_label
 _atom_site_symmetry_multiplicity
 _atom_site_fract_x
 _atom_site_fract_y
 _atom_site_fract_z
 _atom_site_occupancy
  Ni  Ni0  1  0.09090900  0.04545500  0.40909100  1
  Ni  Ni1  1  0.09090900  0.37878800  0.40909100  1
  Ni  Ni2  1  0.09090900  0.71212100  0.40909100  1
  Ni  Ni3  1  0.42424200  0.04545500  0.40909100  1
  Ni  Ni4  1  0.42424200  0.37878800  0.40909100  1
  Ni  Ni5  1  0.42424200  0.71212100  0.40909100  1
  Ni  Ni6  1  0.75757600  0.04545500  0.40909100  1
  Ni  Ni7  1  0.75757600  0.37878800  0.40909100  1
  Ni  Ni8  1  0.75757600  0.71212100  0.40909100  1
  Ni  Ni9  1  0.33065874  0.16817411  0.50011554  1
  Ni  Ni10  1  0.33240884  0.50214356  0.50109706  1
  Ni  Ni11  1  0.33087824  0.83420421  0.50031797  1
  Ni  Ni12  1  0.66436709  0.16809511  0.50032141  1
  Ni  Ni13  1  0.66532164  0.50268439  0.50125165  1
  Ni  Ni14  1  0.66316790  0.83240151  0.50084946  1
  Ni  Ni15  1  0.99761515  0.16787755  0.49944735  1
  Ni  Ni16  1  0.99653757  0.50296923  0.50196919  1
  Ni  Ni17  1  0.99624029  0.83211769  0.50170014  1
  Ni  Ni18  1  0.23686177  0.28881565  0.59137554  1
  Ni  Ni19  1  0.23894679  0.62400215  0.59156093  1
  Ni  Ni20  1  0.24025859  0.95778893  0.59148998  1
  Ni  Ni21  1  0.56843611  0.28553682  0.59123656  1
  Ni  Ni22  1  0.57305131  0.62453465  0.59635030  1
  Ni  Ni23  1  0.57111653  0.95737189  0.59168486  1
  Ni  Ni24  1  0.90510234  0.28860848  0.59133183  1
  Ni  Ni25  1  0.90839845  0.62438090  0.59743526  1
  Ni  Ni26  1  0.90585039  0.96122714  0.59126327  1
  C  C27  1  0.67697045  0.63662800  0.67414965  1
  H  H28  1  0.58384182  0.64061296  0.71193450  1
  O  O29  1  0.84604508  0.63852415  0.68687941  1
