# generated using pymatgen
data_Mo27N2
_symmetry_space_group_name_H-M   'P 1'
_cell_length_a   8.13431400
_cell_length_b   8.13432797
_cell_length_c   22.13894100
_cell_angle_alpha   90.00084524
_cell_angle_beta   90.00084525
_cell_angle_gamma   109.47202259
_symmetry_Int_Tables_number   1
_chemical_formula_structural   Mo27N2
_chemical_formula_sum   'Mo27 N2'
_cell_volume   1381.08702123
_cell_formula_units_Z   1
loop_
 _symmetry_equiv_pos_site_id
 _symmetry_equiv_pos_as_xyz
  1  'x, y, z'
loop_
 _atom_site_type_symbol
 _atom_site_label
 _atom_site_symmetry_multiplicity
 _atom_site_fract_x
 _atom_site_fract_y
 _atom_site_fract_z
 _atom_site_occupancy
  Mo  Mo0  1  0.99930336  0.33369983  0.59489230  1
  Mo  Mo1  1  0.00186625  0.66696241  0.59472978  1
  Mo  Mo2  1  0.99948183  0.99948192  0.59422976  1
  Mo  Mo3  1  0.33351959  0.33351973  0.59423311  1
  Mo  Mo4  1  0.33116272  0.66604627  0.59472788  1
  Mo  Mo5  1  0.33369977  0.99930344  0.59489248  1
  Mo  Mo6  1  0.66604803  0.33116332  0.59472795  1
  Mo  Mo7  1  0.66653324  0.66653200  0.59926166  1
  Mo  Mo8  1  0.66696422  0.00186690  0.59472973  1
  Mo  Mo9  1  0.16659865  0.16659895  0.49770044  1
  Mo  Mo10  1  0.16633699  0.50030492  0.49734917  1
  Mo  Mo11  1  0.16687012  0.83289489  0.49734769  1
  Mo  Mo12  1  0.50030602  0.16633753  0.49734928  1
  Mo  Mo13  1  0.49843016  0.49842972  0.49681815  1
  Mo  Mo14  1  0.50032465  0.83288680  0.49764084  1
  Mo  Mo15  1  0.83289599  0.16687058  0.49734761  1
  Mo  Mo16  1  0.83288746  0.50032391  0.49764082  1
  Mo  Mo17  1  0.83477386  0.83477344  0.49681743  1
  Mo  Mo18  1  0.00000000  0.33333300  0.40000000  1
  Mo  Mo19  1  0.00000000  0.66666600  0.40000000  1
  Mo  Mo20  1  1.00000000  1.00000000  0.40000000  1
  Mo  Mo21  1  0.33333300  0.33333300  0.40000000  1
  Mo  Mo22  1  0.33333300  0.66666600  0.40000000  1
  Mo  Mo23  1  0.33333300  1.00000000  0.40000000  1
  Mo  Mo24  1  0.66666700  0.33333300  0.40000000  1
  Mo  Mo25  1  0.66666700  0.66666600  0.40000000  1
  Mo  Mo26  1  0.66666700  1.00000000  0.40000000  1
  N  N27  1  0.66644661  0.66644409  0.69266867  1
  N  N28  1  0.66642810  0.66642456  0.74370559  1
