# generated using pymatgen
data_Mo12HS16
_symmetry_space_group_name_H-M   'P 1'
_cell_length_a   6.40582443
_cell_length_b   6.40502189
_cell_length_c   27.80788600
_cell_angle_alpha   91.26713631
_cell_angle_beta   91.36148131
_cell_angle_gamma   91.33958978
_symmetry_Int_Tables_number   1
_chemical_formula_structural   Mo12HS16
_chemical_formula_sum   'Mo12 H1 S16'
_cell_volume   1140.01494538
_cell_formula_units_Z   1
loop_
 _symmetry_equiv_pos_site_id
 _symmetry_equiv_pos_as_xyz
  1  'x, y, z'
loop_
 _atom_site_type_symbol
 _atom_site_label
 _atom_site_symmetry_multiplicity
 _atom_site_fract_x
 _atom_site_fract_y
 _atom_site_fract_z
 _atom_site_occupancy
  Mo  Mo0  1  0.21053600  0.55052600  0.34322700  1
  Mo  Mo1  1  0.22124710  0.54734754  0.57549133  1
  Mo  Mo2  1  0.78878154  0.44938374  0.38675575  1
  Mo  Mo3  1  0.78115110  0.44174883  0.61818964  1
  Mo  Mo4  1  0.40772695  0.21468235  0.37661536  1
  Mo  Mo5  1  0.41274152  0.21401634  0.60845640  1
  Mo  Mo6  1  0.59470900  0.78943200  0.35357800  1
  Mo  Mo7  1  0.59676932  0.78145128  0.58541382  1
  Mo  Mo8  1  0.55045000  0.40548900  0.29849800  1
  Mo  Mo9  1  0.55777653  0.40373026  0.52864158  1
  Mo  Mo10  1  0.45286757  0.59654657  0.43269333  1
  Mo  Mo11  1  0.44621943  0.58267920  0.65858008  1
  S  S12  1  0.13336451  0.38784368  0.42029277  1
  S  S13  1  0.13114238  0.37359533  0.65151202  1
  S  S14  1  0.86792400  0.61363500  0.31056000  1
  S  S15  1  0.87520648  0.61092363  0.54149112  1
  S  S16  1  0.73733500  0.13203700  0.33909000  1
  S  S17  1  0.74400554  0.12760172  0.56857569  1
  S  S18  1  0.26340423  0.86882973  0.39173801  1
  S  S19  1  0.26535712  0.86671719  0.62553432  1
  S  S20  1  0.38668300  0.73747600  0.28032400  1
  S  S21  1  0.39401242  0.73644774  0.51219829  1
  S  S22  1  0.61514969  0.26233357  0.44960494  1
  S  S23  1  0.62792678  0.24208598  0.68307293  1
  S  S24  1  0.21767900  0.21800500  0.30009800  1
  S  S25  1  0.22808237  0.21227336  0.53166595  1
  S  S26  1  0.78595837  0.78195123  0.43046923  1
  S  S27  1  0.77447088  0.77103005  0.66421825  1
  H  H28  1  0.53446747  0.39689377  0.71395505  1
