# generated using pymatgen
data_HRh27
_symmetry_space_group_name_H-M   'P 1'
_cell_length_a   8.03672266
_cell_length_b   8.03669826
_cell_length_c   21.92791400
_cell_angle_alpha   86.49772645
_cell_angle_beta   86.49795137
_cell_angle_gamma   59.99991575
_symmetry_Int_Tables_number   1
_chemical_formula_structural   HRh27
_chemical_formula_sum   'H1 Rh27'
_cell_volume   1223.49202859
_cell_formula_units_Z   1
loop_
 _symmetry_equiv_pos_site_id
 _symmetry_equiv_pos_as_xyz
  1  'x, y, z'
loop_
 _atom_site_type_symbol
 _atom_site_label
 _atom_site_symmetry_multiplicity
 _atom_site_fract_x
 _atom_site_fract_y
 _atom_site_fract_z
 _atom_site_occupancy
  Rh  Rh0  1  0.06666700  0.06666700  0.40000000  1
  Rh  Rh1  1  0.06666700  0.40000000  0.40000000  1
  Rh  Rh2  1  0.06666700  0.73333300  0.40000000  1
  Rh  Rh3  1  0.40000000  0.06666700  0.40000000  1
  Rh  Rh4  1  0.40000000  0.40000000  0.40000000  1
  Rh  Rh5  1  0.40000000  0.73333300  0.40000000  1
  Rh  Rh6  1  0.73333300  0.06666700  0.40000000  1
  Rh  Rh7  1  0.73333300  0.40000000  0.40000000  1
  Rh  Rh8  1  0.73333300  0.73333300  0.40000000  1
  Rh  Rh9  1  0.16688488  0.16688287  0.49881551  1
  Rh  Rh10  1  0.16695237  0.50025998  0.49879110  1
  Rh  Rh11  1  0.16755074  0.83326883  0.49864236  1
  Rh  Rh12  1  0.50026198  0.16695038  0.49879112  1
  Rh  Rh13  1  0.50116873  0.50116678  0.49901991  1
  Rh  Rh14  1  0.50108081  0.83177774  0.49892613  1
  Rh  Rh15  1  0.83327090  0.16754866  0.49864238  1
  Rh  Rh16  1  0.83177968  0.50107886  0.49892614  1
  Rh  Rh17  1  0.83327366  0.83327166  0.49862165  1
  Rh  Rh18  1  0.26716379  0.26715951  0.59746678  1
  Rh  Rh19  1  0.26627264  0.60098492  0.59735167  1
  Rh  Rh20  1  0.26610945  0.93435360  0.59734621  1
  Rh  Rh21  1  0.60098920  0.26626840  0.59735167  1
  Rh  Rh22  1  0.60038647  0.60038230  0.60121084  1
  Rh  Rh23  1  0.60093777  0.93456447  0.59732724  1
  Rh  Rh24  1  0.93435779  0.26610532  0.59734622  1
  Rh  Rh25  1  0.93456871  0.60093345  0.59732724  1
  Rh  Rh26  1  0.93382933  0.93382502  0.59712481  1
  H  H27  1  0.59784008  0.59783845  0.67328175  1
