# generated using pymatgen
data_Mo12H3S16N
_symmetry_space_group_name_H-M   'P 1'
_cell_length_a   6.40582443
_cell_length_b   6.40502189
_cell_length_c   27.80788600
_cell_angle_alpha   91.26713631
_cell_angle_beta   91.36148131
_cell_angle_gamma   91.33958978
_symmetry_Int_Tables_number   1
_chemical_formula_structural   Mo12H3S16N
_chemical_formula_sum   'Mo12 H3 S16 N1'
_cell_volume   1140.01494538
_cell_formula_units_Z   1
loop_
 _symmetry_equiv_pos_site_id
 _symmetry_equiv_pos_as_xyz
  1  'x, y, z'
loop_
 _atom_site_type_symbol
 _atom_site_label
 _atom_site_symmetry_multiplicity
 _atom_site_fract_x
 _atom_site_fract_y
 _atom_site_fract_z
 _atom_site_occupancy
  Mo  Mo0  1  0.21053600  0.55052600  0.34322700  1
  Mo  Mo1  1  0.21768690  0.54317910  0.57347047  1
  Mo  Mo2  1  0.78883121  0.44792851  0.38677384  1
  Mo  Mo3  1  0.79684520  0.43050703  0.61733674  1
  Mo  Mo4  1  0.40826735  0.21259989  0.37661155  1
  Mo  Mo5  1  0.41816610  0.19673899  0.60617032  1
  Mo  Mo6  1  0.59470900  0.78943200  0.35357800  1
  Mo  Mo7  1  0.60050022  0.77845499  0.58341341  1
  Mo  Mo8  1  0.55045000  0.40548900  0.29849800  1
  Mo  Mo9  1  0.55365419  0.39894187  0.52868747  1
  Mo  Mo10  1  0.45268560  0.59349527  0.43172747  1
  Mo  Mo11  1  0.46587187  0.56539775  0.65935946  1
  S  S12  1  0.13373379  0.38601129  0.41987231  1
  S  S13  1  0.14214319  0.36926423  0.64850534  1
  S  S14  1  0.86792400  0.61363500  0.31056000  1
  S  S15  1  0.87368847  0.60264394  0.54111684  1
  S  S16  1  0.73733500  0.13203700  0.33909000  1
  S  S17  1  0.74584669  0.12002383  0.56757880  1
  S  S18  1  0.26356953  0.86846405  0.39165283  1
  S  S19  1  0.27803419  0.85415546  0.62476836  1
  S  S20  1  0.38668300  0.73747600  0.28032400  1
  S  S21  1  0.38848123  0.73509333  0.51097865  1
  S  S22  1  0.61659191  0.25962418  0.44962654  1
  S  S23  1  0.62618471  0.23773642  0.68065605  1
  S  S24  1  0.21767900  0.21800500  0.30009800  1
  S  S25  1  0.22014712  0.20841216  0.53067373  1
  S  S26  1  0.78570797  0.78102461  0.43037049  1
  S  S27  1  0.79165647  0.76595619  0.65973912  1
  N  N28  1  0.42674439  0.62751245  0.73852968  1
  H  H29  1  0.56762354  0.66350042  0.75562611  1
  H  H30  1  0.32814775  0.74756688  0.74656844  1
  H  H31  1  0.36768143  0.49696730  0.75488569  1
