# generated using pymatgen
data_Mo27HN2
_symmetry_space_group_name_H-M   'P 1'
_cell_length_a   8.13431400
_cell_length_b   8.13432797
_cell_length_c   22.13894100
_cell_angle_alpha   90.00084524
_cell_angle_beta   90.00084525
_cell_angle_gamma   109.47202259
_symmetry_Int_Tables_number   1
_chemical_formula_structural   Mo27HN2
_chemical_formula_sum   'Mo27 H1 N2'
_cell_volume   1381.08702123
_cell_formula_units_Z   1
loop_
 _symmetry_equiv_pos_site_id
 _symmetry_equiv_pos_as_xyz
  1  'x, y, z'
loop_
 _atom_site_type_symbol
 _atom_site_label
 _atom_site_symmetry_multiplicity
 _atom_site_fract_x
 _atom_site_fract_y
 _atom_site_fract_z
 _atom_site_occupancy
  Mo  Mo0  1  0.99775285  0.33454681  0.59481291  1
  Mo  Mo1  1  0.00159922  0.66610406  0.59538789  1
  Mo  Mo2  1  0.99981408  0.99975143  0.59374977  1
  Mo  Mo3  1  0.33335735  0.33333617  0.59388120  1
  Mo  Mo4  1  0.33069130  0.66649164  0.59525364  1
  Mo  Mo5  1  0.33466423  0.99792155  0.59477358  1
  Mo  Mo6  1  0.66618529  0.33120076  0.59539170  1
  Mo  Mo7  1  0.66702022  0.66716376  0.60381208  1
  Mo  Mo8  1  0.66616869  0.00198816  0.59524405  1
  Mo  Mo9  1  0.16622867  0.16634756  0.49771919  1
  Mo  Mo10  1  0.16627723  0.50040603  0.49767740  1
  Mo  Mo11  1  0.16638471  0.83246374  0.49758091  1
  Mo  Mo12  1  0.50029523  0.16641463  0.49757416  1
  Mo  Mo13  1  0.49841682  0.49853222  0.49702066  1
  Mo  Mo14  1  0.50035390  0.83228443  0.49778262  1
  Mo  Mo15  1  0.83236256  0.16647516  0.49762994  1
  Mo  Mo16  1  0.83223934  0.50051106  0.49784084  1
  Mo  Mo17  1  0.83406986  0.83415134  0.49713009  1
  Mo  Mo18  1  0.00000000  0.33333300  0.40000000  1
  Mo  Mo19  1  0.00000000  0.66666600  0.40000000  1
  Mo  Mo20  1  1.00000000  1.00000000  0.40000000  1
  Mo  Mo21  1  0.33333300  0.33333300  0.40000000  1
  Mo  Mo22  1  0.33333300  0.66666600  0.40000000  1
  Mo  Mo23  1  0.33333300  1.00000000  0.40000000  1
  Mo  Mo24  1  0.66666700  0.33333300  0.40000000  1
  Mo  Mo25  1  0.66666700  0.66666600  0.40000000  1
  Mo  Mo26  1  0.66666700  1.00000000  0.40000000  1
  N  N27  1  0.67138677  0.67822377  0.68819959  1
  N  N28  1  0.66662979  0.69271434  0.74327481  1
  H  H29  1  0.74458127  0.63492612  0.76659677  1
