# generated using pymatgen
data_Ni27HN2
_symmetry_space_group_name_H-M   'P 1'
_cell_length_a   7.33150949
_cell_length_b   7.33150889
_cell_length_c   21.99719400
_cell_angle_alpha   90.00513446
_cell_angle_beta   93.17934504
_cell_angle_gamma   119.99848735
_symmetry_Int_Tables_number   1
_chemical_formula_structural   Ni27HN2
_chemical_formula_sum   'Ni27 H1 N2'
_cell_volume   1021.87426739
_cell_formula_units_Z   1
loop_
 _symmetry_equiv_pos_site_id
 _symmetry_equiv_pos_as_xyz
  1  'x, y, z'
loop_
 _atom_site_type_symbol
 _atom_site_label
 _atom_site_symmetry_multiplicity
 _atom_site_fract_x
 _atom_site_fract_y
 _atom_site_fract_z
 _atom_site_occupancy
  Ni  Ni0  1  0.09090900  0.04545500  0.40909100  1
  Ni  Ni1  1  0.09090900  0.37878800  0.40909100  1
  Ni  Ni2  1  0.09090900  0.71212100  0.40909100  1
  Ni  Ni3  1  0.42424200  0.04545500  0.40909100  1
  Ni  Ni4  1  0.42424200  0.37878800  0.40909100  1
  Ni  Ni5  1  0.42424200  0.71212100  0.40909100  1
  Ni  Ni6  1  0.75757600  0.04545500  0.40909100  1
  Ni  Ni7  1  0.75757600  0.37878800  0.40909100  1
  Ni  Ni8  1  0.75757600  0.71212100  0.40909100  1
  Ni  Ni9  1  0.33179737  0.16728767  0.50048257  1
  Ni  Ni10  1  0.33541915  0.50222583  0.50233261  1
  Ni  Ni11  1  0.33162132  0.83328861  0.50038397  1
  Ni  Ni12  1  0.66484227  0.16687550  0.49978395  1
  Ni  Ni13  1  0.66369118  0.50213896  0.50231348  1
  Ni  Ni14  1  0.66369160  0.83051489  0.50215291  1
  Ni  Ni15  1  0.99807514  0.16676589  0.49978854  1
  Ni  Ni16  1  0.99824127  0.50024009  0.49991942  1
  Ni  Ni17  1  0.99783775  0.83313588  0.50045165  1
  Ni  Ni18  1  0.23559099  0.28345231  0.59132703  1
  Ni  Ni19  1  0.23637995  0.62173982  0.59147251  1
  Ni  Ni20  1  0.23935182  0.95440058  0.59180851  1
  Ni  Ni21  1  0.57225255  0.28367593  0.59136472  1
  Ni  Ni22  1  0.57417237  0.62156777  0.60249367  1
  Ni  Ni23  1  0.57221287  0.95751822  0.59131605  1
  Ni  Ni24  1  0.90584699  0.28735011  0.59117120  1
  Ni  Ni25  1  0.90934150  0.62156479  0.59153014  1
  Ni  Ni26  1  0.90951285  0.95730714  0.59137513  1
  N  N27  1  0.58625103  0.62528670  0.68009957  1
  N  N28  1  0.57255082  0.62602143  0.73343804  1
  H  H29  1  0.68815686  0.63028430  0.76464526  1
