# generated using pymatgen
data_Mo27N2
_symmetry_space_group_name_H-M   'P 1'
_cell_length_a   8.13431400
_cell_length_b   8.13432797
_cell_length_c   22.13894100
_cell_angle_alpha   90.00084524
_cell_angle_beta   90.00084525
_cell_angle_gamma   109.47202259
_symmetry_Int_Tables_number   1
_chemical_formula_structural   Mo27N2
_chemical_formula_sum   'Mo27 N2'
_cell_volume   1381.08702123
_cell_formula_units_Z   1
loop_
 _symmetry_equiv_pos_site_id
 _symmetry_equiv_pos_as_xyz
  1  'x, y, z'
loop_
 _atom_site_type_symbol
 _atom_site_label
 _atom_site_symmetry_multiplicity
 _atom_site_fract_x
 _atom_site_fract_y
 _atom_site_fract_z
 _atom_site_occupancy
  Mo  Mo0  1  0.99935098  0.33362438  0.59489019  1
  Mo  Mo1  1  0.00176791  0.66698864  0.59479102  1
  Mo  Mo2  1  0.99949381  0.99949333  0.59431423  1
  Mo  Mo3  1  0.33348255  0.33348192  0.59431811  1
  Mo  Mo4  1  0.33123365  0.66599053  0.59479110  1
  Mo  Mo5  1  0.33362479  0.99935049  0.59489063  1
  Mo  Mo6  1  0.66599082  0.33123373  0.59479105  1
  Mo  Mo7  1  0.66652098  0.66652100  0.59953195  1
  Mo  Mo8  1  0.66698884  0.00176799  0.59479122  1
  Mo  Mo9  1  0.16659394  0.16659348  0.49772467  1
  Mo  Mo10  1  0.16637378  0.50036547  0.49737883  1
  Mo  Mo11  1  0.16682419  0.83282269  0.49737699  1
  Mo  Mo12  1  0.50036588  0.16637339  0.49737890  1
  Mo  Mo13  1  0.49851181  0.49851146  0.49694222  1
  Mo  Mo14  1  0.50045411  0.83274367  0.49768686  1
  Mo  Mo15  1  0.83282303  0.16682386  0.49737698  1
  Mo  Mo16  1  0.83274386  0.50045388  0.49768673  1
  Mo  Mo17  1  0.83468128  0.83468105  0.49694041  1
  Mo  Mo18  1  0.00000000  0.33333300  0.40000000  1
  Mo  Mo19  1  0.00000000  0.66666600  0.40000000  1
  Mo  Mo20  1  1.00000000  1.00000000  0.40000000  1
  Mo  Mo21  1  0.33333300  0.33333300  0.40000000  1
  Mo  Mo22  1  0.33333300  0.66666600  0.40000000  1
  Mo  Mo23  1  0.33333300  1.00000000  0.40000000  1
  Mo  Mo24  1  0.66666700  0.33333300  0.40000000  1
  Mo  Mo25  1  0.66666700  0.66666600  0.40000000  1
  Mo  Mo26  1  0.66666700  1.00000000  0.40000000  1
  N  N27  1  0.66643070  0.66643254  0.69288204  1
  N  N28  1  0.66641297  0.66641586  0.74398869  1
