# generated using pymatgen
data_Ni27HO
_symmetry_space_group_name_H-M   'P 1'
_cell_length_a   7.33150949
_cell_length_b   7.33150889
_cell_length_c   21.99719400
_cell_angle_alpha   90.00513446
_cell_angle_beta   93.17934504
_cell_angle_gamma   119.99848735
_symmetry_Int_Tables_number   1
_chemical_formula_structural   Ni27HO
_chemical_formula_sum   'Ni27 H1 O1'
_cell_volume   1021.87426739
_cell_formula_units_Z   1
loop_
 _symmetry_equiv_pos_site_id
 _symmetry_equiv_pos_as_xyz
  1  'x, y, z'
loop_
 _atom_site_type_symbol
 _atom_site_label
 _atom_site_symmetry_multiplicity
 _atom_site_fract_x
 _atom_site_fract_y
 _atom_site_fract_z
 _atom_site_occupancy
  Ni  Ni0  1  0.09090900  0.04545500  0.40909100  1
  Ni  Ni1  1  0.09090900  0.37878800  0.40909100  1
  Ni  Ni2  1  0.09090900  0.71212100  0.40909100  1
  Ni  Ni3  1  0.42424200  0.04545500  0.40909100  1
  Ni  Ni4  1  0.42424200  0.37878800  0.40909100  1
  Ni  Ni5  1  0.42424200  0.71212100  0.40909100  1
  Ni  Ni6  1  0.75757600  0.04545500  0.40909100  1
  Ni  Ni7  1  0.75757600  0.37878800  0.40909100  1
  Ni  Ni8  1  0.75757600  0.71212100  0.40909100  1
  Ni  Ni9  1  0.33399304  0.16738437  0.50041644  1
  Ni  Ni10  1  0.33524390  0.50074645  0.50092454  1
  Ni  Ni11  1  0.33391947  0.83287147  0.50039177  1
  Ni  Ni12  1  0.66694662  0.16656100  0.49983883  1
  Ni  Ni13  1  0.66624551  0.50154867  0.50147851  1
  Ni  Ni14  1  0.66624916  0.83077405  0.50146130  1
  Ni  Ni15  1  0.00120384  0.16702367  0.50084892  1
  Ni  Ni16  1  0.00116339  0.50047061  0.50086642  1
  Ni  Ni17  1  0.99995712  0.83311178  0.50010933  1
  Ni  Ni18  1  0.24195969  0.28560165  0.59218289  1
  Ni  Ni19  1  0.24199025  0.62250710  0.59219101  1
  Ni  Ni20  1  0.24310718  0.95460393  0.59140941  1
  Ni  Ni21  1  0.57753290  0.28613564  0.59137404  1
  Ni  Ni22  1  0.57896981  0.62253630  0.59568128  1
  Ni  Ni23  1  0.57751149  0.95722565  0.59136620  1
  Ni  Ni24  1  0.90908854  0.28752338  0.59155111  1
  Ni  Ni25  1  0.91191154  0.62227002  0.59152429  1
  Ni  Ni26  1  0.91185954  0.95576048  0.59153301  1
  O  O27  1  0.49393177  0.58068658  0.67484595  1
  H  H28  1  0.62425519  0.64573690  0.70208843  1
