# generated using pymatgen
data_Ni27H
_symmetry_space_group_name_H-M   'P 1'
_cell_length_a   7.33150949
_cell_length_b   7.33150889
_cell_length_c   21.99719400
_cell_angle_alpha   90.00513446
_cell_angle_beta   93.17934504
_cell_angle_gamma   119.99848735
_symmetry_Int_Tables_number   1
_chemical_formula_structural   Ni27H
_chemical_formula_sum   'Ni27 H1'
_cell_volume   1021.87426739
_cell_formula_units_Z   1
loop_
 _symmetry_equiv_pos_site_id
 _symmetry_equiv_pos_as_xyz
  1  'x, y, z'
loop_
 _atom_site_type_symbol
 _atom_site_label
 _atom_site_symmetry_multiplicity
 _atom_site_fract_x
 _atom_site_fract_y
 _atom_site_fract_z
 _atom_site_occupancy
  Ni  Ni0  1  0.09090900  0.04545500  0.40909100  1
  Ni  Ni1  1  0.09090900  0.37878800  0.40909100  1
  Ni  Ni2  1  0.09090900  0.71212100  0.40909100  1
  Ni  Ni3  1  0.42424200  0.04545500  0.40909100  1
  Ni  Ni4  1  0.42424200  0.37878800  0.40909100  1
  Ni  Ni5  1  0.42424200  0.71212100  0.40909100  1
  Ni  Ni6  1  0.75757600  0.04545500  0.40909100  1
  Ni  Ni7  1  0.75757600  0.37878800  0.40909100  1
  Ni  Ni8  1  0.75757600  0.71212100  0.40909100  1
  Ni  Ni9  1  0.33418255  0.16757574  0.50097056  1
  Ni  Ni10  1  0.33526933  0.50090870  0.50098144  1
  Ni  Ni11  1  0.33416982  0.83324079  0.50092617  1
  Ni  Ni12  1  0.66703664  0.16687336  0.50105537  1
  Ni  Ni13  1  0.66671215  0.50100552  0.50111651  1
  Ni  Ni14  1  0.66671858  0.83216514  0.50108691  1
  Ni  Ni15  1  0.00081613  0.16695564  0.50109816  1
  Ni  Ni16  1  0.00078895  0.50050137  0.50114353  1
  Ni  Ni17  1  0.99999371  0.83325976  0.50093336  1
  Ni  Ni18  1  0.24323519  0.28810066  0.59242297  1
  Ni  Ni19  1  0.24333814  0.62185182  0.59242026  1
  Ni  Ni20  1  0.24324839  0.95490321  0.59195249  1
  Ni  Ni21  1  0.57668649  0.28815812  0.59233954  1
  Ni  Ni22  1  0.57722463  0.62198808  0.59482500  1
  Ni  Ni23  1  0.57675611  0.95510564  0.59227647  1
  Ni  Ni24  1  0.90977251  0.28815617  0.59223289  1
  Ni  Ni25  1  0.91020154  0.62190325  0.59229009  1
  Ni  Ni26  1  0.91022092  0.95498986  0.59225918  1
  H  H27  1  0.57068513  0.61872549  0.66135615  1
