# generated using pymatgen
data_Mo12H3S16N
_symmetry_space_group_name_H-M   'P 1'
_cell_length_a   6.40582443
_cell_length_b   6.40502189
_cell_length_c   27.80788600
_cell_angle_alpha   91.26713631
_cell_angle_beta   91.36148131
_cell_angle_gamma   91.33958978
_symmetry_Int_Tables_number   1
_chemical_formula_structural   Mo12H3S16N
_chemical_formula_sum   'Mo12 H3 S16 N1'
_cell_volume   1140.01494538
_cell_formula_units_Z   1
loop_
 _symmetry_equiv_pos_site_id
 _symmetry_equiv_pos_as_xyz
  1  'x, y, z'
loop_
 _atom_site_type_symbol
 _atom_site_label
 _atom_site_symmetry_multiplicity
 _atom_site_fract_x
 _atom_site_fract_y
 _atom_site_fract_z
 _atom_site_occupancy
  Mo  Mo0  1  0.21053600  0.55052600  0.34322700  1
  Mo  Mo1  1  0.21521762  0.54741820  0.57270417  1
  Mo  Mo2  1  0.78981045  0.44799962  0.38681793  1
  Mo  Mo3  1  0.79495055  0.43296458  0.61655609  1
  Mo  Mo4  1  0.40855084  0.21325615  0.37662944  1
  Mo  Mo5  1  0.41444498  0.19797927  0.60531564  1
  Mo  Mo6  1  0.59470900  0.78943200  0.35357800  1
  Mo  Mo7  1  0.59615939  0.78298560  0.58255523  1
  Mo  Mo8  1  0.55045000  0.40548900  0.29849800  1
  Mo  Mo9  1  0.55003633  0.40472593  0.52843593  1
  Mo  Mo10  1  0.45303138  0.59482661  0.43138123  1
  Mo  Mo11  1  0.46546770  0.56570724  0.65839051  1
  S  S12  1  0.13428999  0.38673497  0.41977273  1
  S  S13  1  0.13951683  0.37205939  0.64769553  1
  S  S14  1  0.86792400  0.61363500  0.31056000  1
  S  S15  1  0.87062937  0.60817576  0.54056638  1
  S  S16  1  0.73733500  0.13203700  0.33909000  1
  S  S17  1  0.74187075  0.12345542  0.56648730  1
  S  S18  1  0.26306245  0.86947076  0.39126428  1
  S  S19  1  0.27574427  0.85608626  0.62464520  1
  S  S20  1  0.38668300  0.73747600  0.28032400  1
  S  S21  1  0.38411983  0.74066355  0.51010252  1
  S  S22  1  0.61690461  0.26125028  0.44973168  1
  S  S23  1  0.62445312  0.23459197  0.67862537  1
  S  S24  1  0.21767900  0.21800500  0.30009800  1
  S  S25  1  0.21571334  0.21249437  0.53003956  1
  S  S26  1  0.78702890  0.78090479  0.43032336  1
  S  S27  1  0.78994158  0.76982298  0.65806116  1
  N  N28  1  0.43697563  0.61744650  0.73775289  1
  H  H29  1  0.58029711  0.65251479  0.75381480  1
  H  H30  1  0.33849880  0.73510722  0.74774715  1
  H  H31  1  0.38260001  0.48345957  0.75347008  1
