# generated using pymatgen
data_H3Rh27N
_symmetry_space_group_name_H-M   'P 1'
_cell_length_a   8.03672266
_cell_length_b   8.03669826
_cell_length_c   21.92791400
_cell_angle_alpha   86.49772645
_cell_angle_beta   86.49795137
_cell_angle_gamma   59.99991575
_symmetry_Int_Tables_number   1
_chemical_formula_structural   H3Rh27N
_chemical_formula_sum   'H3 Rh27 N1'
_cell_volume   1223.49202859
_cell_formula_units_Z   1
loop_
 _symmetry_equiv_pos_site_id
 _symmetry_equiv_pos_as_xyz
  1  'x, y, z'
loop_
 _atom_site_type_symbol
 _atom_site_label
 _atom_site_symmetry_multiplicity
 _atom_site_fract_x
 _atom_site_fract_y
 _atom_site_fract_z
 _atom_site_occupancy
  Rh  Rh0  1  0.06666700  0.06666700  0.40000000  1
  Rh  Rh1  1  0.06666700  0.40000000  0.40000000  1
  Rh  Rh2  1  0.06666700  0.73333300  0.40000000  1
  Rh  Rh3  1  0.40000000  0.06666700  0.40000000  1
  Rh  Rh4  1  0.40000000  0.40000000  0.40000000  1
  Rh  Rh5  1  0.40000000  0.73333300  0.40000000  1
  Rh  Rh6  1  0.73333300  0.06666700  0.40000000  1
  Rh  Rh7  1  0.73333300  0.40000000  0.40000000  1
  Rh  Rh8  1  0.73333300  0.73333300  0.40000000  1
  Rh  Rh9  1  0.16693370  0.16720029  0.49811930  1
  Rh  Rh10  1  0.16715207  0.50030857  0.49810063  1
  Rh  Rh11  1  0.16750369  0.83340252  0.49835927  1
  Rh  Rh12  1  0.50021465  0.16714263  0.49811079  1
  Rh  Rh13  1  0.50150501  0.50159988  0.49944757  1
  Rh  Rh14  1  0.50142838  0.83108471  0.49935743  1
  Rh  Rh15  1  0.83333472  0.16760759  0.49836976  1
  Rh  Rh16  1  0.83094048  0.50155234  0.49937733  1
  Rh  Rh17  1  0.83332842  0.83345742  0.49833606  1
  Rh  Rh18  1  0.26718303  0.26737068  0.59688516  1
  Rh  Rh19  1  0.26502885  0.60118804  0.59667842  1
  Rh  Rh20  1  0.26472644  0.93607326  0.59654907  1
  Rh  Rh21  1  0.60100443  0.26510281  0.59661745  1
  Rh  Rh22  1  0.59997731  0.60033699  0.60281841  1
  Rh  Rh23  1  0.60103642  0.93601137  0.59659505  1
  Rh  Rh24  1  0.93563786  0.26511988  0.59665789  1
  Rh  Rh25  1  0.93599582  0.60118254  0.59651757  1
  Rh  Rh26  1  0.93384956  0.93399955  0.59679099  1
  N  N27  1  0.59080631  0.59327975  0.70007031  1
  H  H28  1  0.68509157  0.62979791  0.71656702  1
  H  H29  1  0.45603500  0.68810652  0.71750175  1
  H  H30  1  0.62666816  0.45888298  0.71828871  1
