# generated using pymatgen
data_Mo12HS16
_symmetry_space_group_name_H-M   'P 1'
_cell_length_a   6.40582443
_cell_length_b   6.40502189
_cell_length_c   27.80788600
_cell_angle_alpha   91.26713631
_cell_angle_beta   91.36148131
_cell_angle_gamma   91.33958978
_symmetry_Int_Tables_number   1
_chemical_formula_structural   Mo12HS16
_chemical_formula_sum   'Mo12 H1 S16'
_cell_volume   1140.01494538
_cell_formula_units_Z   1
loop_
 _symmetry_equiv_pos_site_id
 _symmetry_equiv_pos_as_xyz
  1  'x, y, z'
loop_
 _atom_site_type_symbol
 _atom_site_label
 _atom_site_symmetry_multiplicity
 _atom_site_fract_x
 _atom_site_fract_y
 _atom_site_fract_z
 _atom_site_occupancy
  Mo  Mo0  1  0.21053600  0.55052600  0.34322700  1
  Mo  Mo1  1  0.20988844  0.55178949  0.57335467  1
  Mo  Mo2  1  0.78483774  0.44832642  0.38655569  1
  Mo  Mo3  1  0.78814991  0.43992296  0.61711811  1
  Mo  Mo4  1  0.40685233  0.21330351  0.37670231  1
  Mo  Mo5  1  0.41291054  0.20751845  0.60625922  1
  Mo  Mo6  1  0.59470900  0.78943200  0.35357800  1
  Mo  Mo7  1  0.59518318  0.78575304  0.58328545  1
  Mo  Mo8  1  0.55045000  0.40548900  0.29849800  1
  Mo  Mo9  1  0.54811343  0.40536761  0.52879451  1
  Mo  Mo10  1  0.44828763  0.59371339  0.43156458  1
  Mo  Mo11  1  0.45338180  0.57734155  0.65985863  1
  S  S12  1  0.13094144  0.38452389  0.42005570  1
  S  S13  1  0.13485565  0.37698367  0.64825561  1
  S  S14  1  0.86792400  0.61363500  0.31056000  1
  S  S15  1  0.86679753  0.60963221  0.54070030  1
  S  S16  1  0.73733500  0.13203700  0.33909000  1
  S  S17  1  0.74089041  0.12830009  0.56767382  1
  S  S18  1  0.26212174  0.86825513  0.39163932  1
  S  S19  1  0.27054689  0.86389280  0.62393647  1
  S  S20  1  0.38668300  0.73747600  0.28032400  1
  S  S21  1  0.38312663  0.73942593  0.51067548  1
  S  S22  1  0.61332719  0.26195698  0.44982664  1
  S  S23  1  0.61882295  0.25163256  0.68159122  1
  S  S24  1  0.21767900  0.21800500  0.30009800  1
  S  S25  1  0.21465983  0.21659615  0.53066856  1
  S  S26  1  0.78159165  0.78156023  0.43048356  1
  S  S27  1  0.78390653  0.77469541  0.66027797  1
  H  H28  1  0.42488063  0.63361355  0.72599515  1
