# generated using pymatgen
data_Mo27CO
_symmetry_space_group_name_H-M   'P 1'
_cell_length_a   8.13431400
_cell_length_b   8.13432797
_cell_length_c   22.13894100
_cell_angle_alpha   90.00084524
_cell_angle_beta   90.00084525
_cell_angle_gamma   109.47202259
_symmetry_Int_Tables_number   1
_chemical_formula_structural   Mo27CO
_chemical_formula_sum   'Mo27 C1 O1'
_cell_volume   1381.08702123
_cell_formula_units_Z   1
loop_
 _symmetry_equiv_pos_site_id
 _symmetry_equiv_pos_as_xyz
  1  'x, y, z'
loop_
 _atom_site_type_symbol
 _atom_site_label
 _atom_site_symmetry_multiplicity
 _atom_site_fract_x
 _atom_site_fract_y
 _atom_site_fract_z
 _atom_site_occupancy
  Mo  Mo0  1  0.99880436  0.33446804  0.59479811  1
  Mo  Mo1  1  0.00130348  0.66614907  0.59589549  1
  Mo  Mo2  1  0.99919086  0.99908001  0.59420807  1
  Mo  Mo3  1  0.33384702  0.33373101  0.59428978  1
  Mo  Mo4  1  0.33200877  0.66692385  0.59599477  1
  Mo  Mo5  1  0.33454104  0.99873019  0.59477754  1
  Mo  Mo6  1  0.66693774  0.33193355  0.59599294  1
  Mo  Mo7  1  0.66616286  0.66593523  0.60035575  1
  Mo  Mo8  1  0.66616227  0.00122665  0.59589113  1
  Mo  Mo9  1  0.16681498  0.16681748  0.49812403  1
  Mo  Mo10  1  0.16664238  0.50083658  0.49792578  1
  Mo  Mo11  1  0.16684383  0.83248060  0.49790365  1
  Mo  Mo12  1  0.50084670  0.16661697  0.49789481  1
  Mo  Mo13  1  0.49844957  0.49842486  0.49692951  1
  Mo  Mo14  1  0.50085210  0.83265293  0.49787179  1
  Mo  Mo15  1  0.83249256  0.16681895  0.49793159  1
  Mo  Mo16  1  0.83267976  0.50083091  0.49786421  1
  Mo  Mo17  1  0.83521063  0.83518849  0.49676856  1
  Mo  Mo18  1  0.00000000  0.33333300  0.40000000  1
  Mo  Mo19  1  0.00000000  0.66666600  0.40000000  1
  Mo  Mo20  1  1.00000000  1.00000000  0.40000000  1
  Mo  Mo21  1  0.33333300  0.33333300  0.40000000  1
  Mo  Mo22  1  0.33333300  0.66666600  0.40000000  1
  Mo  Mo23  1  0.33333300  1.00000000  0.40000000  1
  Mo  Mo24  1  0.66666700  0.33333300  0.40000000  1
  Mo  Mo25  1  0.66666700  0.66666600  0.40000000  1
  Mo  Mo26  1  0.66666700  1.00000000  0.40000000  1
  O  O27  1  0.64828118  0.65287457  0.74313529  1
  C  C28  1  0.65444110  0.65757935  0.68936088  1
