# generated using pymatgen
data_Mo27HCO
_symmetry_space_group_name_H-M   'P 1'
_cell_length_a   8.13431400
_cell_length_b   8.13432797
_cell_length_c   22.13894100
_cell_angle_alpha   90.00084524
_cell_angle_beta   90.00084525
_cell_angle_gamma   109.47202259
_symmetry_Int_Tables_number   1
_chemical_formula_structural   Mo27HCO
_chemical_formula_sum   'Mo27 H1 C1 O1'
_cell_volume   1381.08702123
_cell_formula_units_Z   1
loop_
 _symmetry_equiv_pos_site_id
 _symmetry_equiv_pos_as_xyz
  1  'x, y, z'
loop_
 _atom_site_type_symbol
 _atom_site_label
 _atom_site_symmetry_multiplicity
 _atom_site_fract_x
 _atom_site_fract_y
 _atom_site_fract_z
 _atom_site_occupancy
  Mo  Mo0  1  0.99752245  0.33703438  0.59495001  1
  Mo  Mo1  1  0.00371205  0.66570026  0.59511093  1
  Mo  Mo2  1  0.00131644  0.00115259  0.59221790  1
  Mo  Mo3  1  0.32910833  0.33027519  0.59678914  1
  Mo  Mo4  1  0.33866994  0.66362554  0.59823017  1
  Mo  Mo5  1  0.33607165  0.99872890  0.59528991  1
  Mo  Mo6  1  0.66213862  0.34018700  0.59873836  1
  Mo  Mo7  1  0.67303590  0.67345074  0.59565654  1
  Mo  Mo8  1  0.66491193  0.00462062  0.59486416  1
  Mo  Mo9  1  0.16524621  0.16548289  0.49585292  1
  Mo  Mo10  1  0.16725584  0.50038115  0.49790010  1
  Mo  Mo11  1  0.16845264  0.83296145  0.49751031  1
  Mo  Mo12  1  0.49999056  0.16798259  0.49809125  1
  Mo  Mo13  1  0.50031061  0.50077323  0.49690728  1
  Mo  Mo14  1  0.50050324  0.83419367  0.49787881  1
  Mo  Mo15  1  0.83212903  0.16904526  0.49773882  1
  Mo  Mo16  1  0.83353012  0.50132577  0.49784705  1
  Mo  Mo17  1  0.83576495  0.83631749  0.49569870  1
  Mo  Mo18  1  0.00000000  0.33333300  0.40000000  1
  Mo  Mo19  1  0.00000000  0.66666600  0.40000000  1
  Mo  Mo20  1  1.00000000  1.00000000  0.40000000  1
  Mo  Mo21  1  0.33333300  0.33333300  0.40000000  1
  Mo  Mo22  1  0.33333300  0.66666600  0.40000000  1
  Mo  Mo23  1  0.33333300  1.00000000  0.40000000  1
  Mo  Mo24  1  0.66666700  0.33333300  0.40000000  1
  Mo  Mo25  1  0.66666700  0.66666600  0.40000000  1
  Mo  Mo26  1  0.66666700  1.00000000  0.40000000  1
  C  C27  1  0.49485063  0.51081518  0.65624881  1
  H  H28  1  0.55243426  0.63153030  0.73364776  1
  O  O29  1  0.49098488  0.51266751  0.71825614  1
