# generated using pymatgen
data_Ni27N2
_symmetry_space_group_name_H-M   'P 1'
_cell_length_a   7.33150949
_cell_length_b   7.33150889
_cell_length_c   21.99719400
_cell_angle_alpha   90.00513446
_cell_angle_beta   93.17934504
_cell_angle_gamma   119.99848735
_symmetry_Int_Tables_number   1
_chemical_formula_structural   Ni27N2
_chemical_formula_sum   'Ni27 N2'
_cell_volume   1021.87426739
_cell_formula_units_Z   1
loop_
 _symmetry_equiv_pos_site_id
 _symmetry_equiv_pos_as_xyz
  1  'x, y, z'
loop_
 _atom_site_type_symbol
 _atom_site_label
 _atom_site_symmetry_multiplicity
 _atom_site_fract_x
 _atom_site_fract_y
 _atom_site_fract_z
 _atom_site_occupancy
  Ni  Ni0  1  0.09090900  0.04545500  0.40909100  1
  Ni  Ni1  1  0.09090900  0.37878800  0.40909100  1
  Ni  Ni2  1  0.09090900  0.71212100  0.40909100  1
  Ni  Ni3  1  0.42424200  0.04545500  0.40909100  1
  Ni  Ni4  1  0.42424200  0.37878800  0.40909100  1
  Ni  Ni5  1  0.42424200  0.71212100  0.40909100  1
  Ni  Ni6  1  0.75757600  0.04545500  0.40909100  1
  Ni  Ni7  1  0.75757600  0.37878800  0.40909100  1
  Ni  Ni8  1  0.75757600  0.71212100  0.40909100  1
  Ni  Ni9  1  0.33389583  0.16727634  0.50036595  1
  Ni  Ni10  1  0.33762607  0.50210390  0.50243370  1
  Ni  Ni11  1  0.33386500  0.83333064  0.50032535  1
  Ni  Ni12  1  0.66725770  0.16697487  0.50024517  1
  Ni  Ni13  1  0.66564242  0.50234114  0.50252426  1
  Ni  Ni14  1  0.66570049  0.82991921  0.50253323  1
  Ni  Ni15  1  0.99992805  0.16682963  0.50024266  1
  Ni  Ni16  1  0.00002061  0.49983439  0.50020067  1
  Ni  Ni17  1  0.00019742  0.83342103  0.50038926  1
  Ni  Ni18  1  0.23984085  0.28452406  0.59142821  1
  Ni  Ni19  1  0.24010311  0.62217868  0.59141677  1
  Ni  Ni20  1  0.24335604  0.95509558  0.59212053  1
  Ni  Ni21  1  0.57574694  0.28533466  0.59147597  1
  Ni  Ni22  1  0.57820369  0.62251926  0.60410288  1
  Ni  Ni23  1  0.57545500  0.95682512  0.59148521  1
  Ni  Ni24  1  0.90934077  0.28790037  0.59173781  1
  Ni  Ni25  1  0.91234227  0.62242383  0.59155490  1
  Ni  Ni26  1  0.91218598  0.95627735  0.59159664  1
  N  N27  1  0.58557346  0.62595064  0.68567313  1
  N  N28  1  0.58725848  0.62649506  0.73696755  1
