# generated using pymatgen
data_Mo27HN2
_symmetry_space_group_name_H-M   'P 1'
_cell_length_a   8.13431400
_cell_length_b   8.13432797
_cell_length_c   22.13894100
_cell_angle_alpha   90.00084524
_cell_angle_beta   90.00084525
_cell_angle_gamma   109.47202259
_symmetry_Int_Tables_number   1
_chemical_formula_structural   Mo27HN2
_chemical_formula_sum   'Mo27 H1 N2'
_cell_volume   1381.08702123
_cell_formula_units_Z   1
loop_
 _symmetry_equiv_pos_site_id
 _symmetry_equiv_pos_as_xyz
  1  'x, y, z'
loop_
 _atom_site_type_symbol
 _atom_site_label
 _atom_site_symmetry_multiplicity
 _atom_site_fract_x
 _atom_site_fract_y
 _atom_site_fract_z
 _atom_site_occupancy
  Mo  Mo0  1  0.99794178  0.33452561  0.59471325  1
  Mo  Mo1  1  0.00163280  0.66611556  0.59529083  1
  Mo  Mo2  1  0.99992310  0.99967500  0.59371639  1
  Mo  Mo3  1  0.33362486  0.33346360  0.59384601  1
  Mo  Mo4  1  0.33110109  0.66650533  0.59514312  1
  Mo  Mo5  1  0.33484948  0.99804509  0.59470879  1
  Mo  Mo6  1  0.66626412  0.33138543  0.59528142  1
  Mo  Mo7  1  0.66728626  0.66697116  0.60337391  1
  Mo  Mo8  1  0.66639671  0.00179465  0.59508156  1
  Mo  Mo9  1  0.16636159  0.16638364  0.49773614  1
  Mo  Mo10  1  0.16644677  0.50039272  0.49761708  1
  Mo  Mo11  1  0.16648488  0.83249818  0.49752599  1
  Mo  Mo12  1  0.50036824  0.16647511  0.49750492  1
  Mo  Mo13  1  0.49839949  0.49840287  0.49688463  1
  Mo  Mo14  1  0.50025796  0.83247173  0.49770367  1
  Mo  Mo15  1  0.83248898  0.16642690  0.49755722  1
  Mo  Mo16  1  0.83256520  0.50031428  0.49773671  1
  Mo  Mo17  1  0.83436677  0.83429894  0.49699457  1
  Mo  Mo18  1  0.00000000  0.33333300  0.40000000  1
  Mo  Mo19  1  0.00000000  0.66666600  0.40000000  1
  Mo  Mo20  1  1.00000000  1.00000000  0.40000000  1
  Mo  Mo21  1  0.33333300  0.33333300  0.40000000  1
  Mo  Mo22  1  0.33333300  0.66666600  0.40000000  1
  Mo  Mo23  1  0.33333300  1.00000000  0.40000000  1
  Mo  Mo24  1  0.66666700  0.33333300  0.40000000  1
  Mo  Mo25  1  0.66666700  0.66666600  0.40000000  1
  Mo  Mo26  1  0.66666700  1.00000000  0.40000000  1
  N  N27  1  0.67142977  0.67764621  0.68806987  1
  N  N28  1  0.66585438  0.69237845  0.74275810  1
  H  H29  1  0.74479061  0.63788731  0.76716205  1
