# generated using pymatgen
data_Mo27H3N
_symmetry_space_group_name_H-M   'P 1'
_cell_length_a   8.13431400
_cell_length_b   8.13432797
_cell_length_c   22.13894100
_cell_angle_alpha   90.00084524
_cell_angle_beta   90.00084525
_cell_angle_gamma   109.47202259
_symmetry_Int_Tables_number   1
_chemical_formula_structural   Mo27H3N
_chemical_formula_sum   'Mo27 H3 N1'
_cell_volume   1381.08702123
_cell_formula_units_Z   1
loop_
 _symmetry_equiv_pos_site_id
 _symmetry_equiv_pos_as_xyz
  1  'x, y, z'
loop_
 _atom_site_type_symbol
 _atom_site_label
 _atom_site_symmetry_multiplicity
 _atom_site_fract_x
 _atom_site_fract_y
 _atom_site_fract_z
 _atom_site_occupancy
  Mo  Mo0  1  0.99904628  0.33366892  0.59476713  1
  Mo  Mo1  1  0.00082401  0.66818181  0.59414315  1
  Mo  Mo2  1  0.00015563  0.00002474  0.59430625  1
  Mo  Mo3  1  0.33253035  0.33241222  0.59423925  1
  Mo  Mo4  1  0.33174594  0.66447162  0.59415840  1
  Mo  Mo5  1  0.33388973  0.99883644  0.59477487  1
  Mo  Mo6  1  0.66449969  0.33193858  0.59418990  1
  Mo  Mo7  1  0.66612350  0.66637206  0.60208980  1
  Mo  Mo8  1  0.66823838  0.00103247  0.59410924  1
  Mo  Mo9  1  0.16648230  0.16654119  0.49725873  1
  Mo  Mo10  1  0.16596874  0.49992368  0.49727796  1
  Mo  Mo11  1  0.16708463  0.83311463  0.49726250  1
  Mo  Mo12  1  0.49990260  0.16595245  0.49724750  1
  Mo  Mo13  1  0.49920057  0.49918073  0.49720520  1
  Mo  Mo14  1  0.50135921  0.83167696  0.49770575  1
  Mo  Mo15  1  0.83309662  0.16706554  0.49729377  1
  Mo  Mo16  1  0.83166637  0.50136909  0.49770868  1
  Mo  Mo17  1  0.83386044  0.83383705  0.49719953  1
  Mo  Mo18  1  0.00000000  0.33333300  0.40000000  1
  Mo  Mo19  1  0.00000000  0.66666600  0.40000000  1
  Mo  Mo20  1  1.00000000  1.00000000  0.40000000  1
  Mo  Mo21  1  0.33333300  0.33333300  0.40000000  1
  Mo  Mo22  1  0.33333300  0.66666600  0.40000000  1
  Mo  Mo23  1  0.33333300  1.00000000  0.40000000  1
  Mo  Mo24  1  0.66666700  0.33333300  0.40000000  1
  Mo  Mo25  1  0.66666700  0.66666600  0.40000000  1
  Mo  Mo26  1  0.66666700  1.00000000  0.40000000  1
  N  N27  1  0.66290598  0.66657719  0.70412060  1
  H  H28  1  0.78622756  0.70136609  0.72247920  1
  H  H29  1  0.60712417  0.75378820  0.72094349  1
  H  H30  1  0.59280087  0.54666084  0.72175513  1
