# generated using pymatgen
data_Mo27CO
_symmetry_space_group_name_H-M   'P 1'
_cell_length_a   8.13431400
_cell_length_b   8.13432797
_cell_length_c   22.13894100
_cell_angle_alpha   90.00084524
_cell_angle_beta   90.00084525
_cell_angle_gamma   109.47202259
_symmetry_Int_Tables_number   1
_chemical_formula_structural   Mo27CO
_chemical_formula_sum   'Mo27 C1 O1'
_cell_volume   1381.08702123
_cell_formula_units_Z   1
loop_
 _symmetry_equiv_pos_site_id
 _symmetry_equiv_pos_as_xyz
  1  'x, y, z'
loop_
 _atom_site_type_symbol
 _atom_site_label
 _atom_site_symmetry_multiplicity
 _atom_site_fract_x
 _atom_site_fract_y
 _atom_site_fract_z
 _atom_site_occupancy
  Mo  Mo0  1  0.99891602  0.33445297  0.59490324  1
  Mo  Mo1  1  0.00165779  0.66620742  0.59543371  1
  Mo  Mo2  1  0.99896004  0.99887502  0.59416605  1
  Mo  Mo3  1  0.33416577  0.33407868  0.59419996  1
  Mo  Mo4  1  0.33153284  0.66705577  0.59539603  1
  Mo  Mo5  1  0.33446933  0.99889900  0.59490111  1
  Mo  Mo6  1  0.66707071  0.33150135  0.59542631  1
  Mo  Mo7  1  0.66605323  0.66588335  0.59728834  1
  Mo  Mo8  1  0.66622566  0.00162783  0.59540362  1
  Mo  Mo9  1  0.16683669  0.16683389  0.49810115  1
  Mo  Mo10  1  0.16658326  0.50067524  0.49751331  1
  Mo  Mo11  1  0.16690606  0.83273550  0.49750366  1
  Mo  Mo12  1  0.50067926  0.16656782  0.49749772  1
  Mo  Mo13  1  0.49736931  0.49734725  0.49610479  1
  Mo  Mo14  1  0.49986134  0.83373947  0.49739662  1
  Mo  Mo15  1  0.83273867  0.16689028  0.49751907  1
  Mo  Mo16  1  0.83375691  0.49984599  0.49739368  1
  Mo  Mo17  1  0.83630068  0.83628239  0.49593734  1
  Mo  Mo18  1  0.00000000  0.33333300  0.40000000  1
  Mo  Mo19  1  0.00000000  0.66666600  0.40000000  1
  Mo  Mo20  1  1.00000000  1.00000000  0.40000000  1
  Mo  Mo21  1  0.33333300  0.33333300  0.40000000  1
  Mo  Mo22  1  0.33333300  0.66666600  0.40000000  1
  Mo  Mo23  1  0.33333300  1.00000000  0.40000000  1
  Mo  Mo24  1  0.66666700  0.33333300  0.40000000  1
  Mo  Mo25  1  0.66666700  0.66666600  0.40000000  1
  Mo  Mo26  1  0.66666700  1.00000000  0.40000000  1
  O  O27  1  0.65129010  0.65474749  0.74026651  1
  C  C28  1  0.65617566  0.65862904  0.68735592  1
