# generated using pymatgen
data_Mo27H
_symmetry_space_group_name_H-M   'P 1'
_cell_length_a   8.13431400
_cell_length_b   8.13432797
_cell_length_c   22.13894100
_cell_angle_alpha   90.00084524
_cell_angle_beta   90.00084525
_cell_angle_gamma   109.47202259
_symmetry_Int_Tables_number   1
_chemical_formula_structural   Mo27H
_chemical_formula_sum   'Mo27 H1'
_cell_volume   1381.08702123
_cell_formula_units_Z   1
loop_
 _symmetry_equiv_pos_site_id
 _symmetry_equiv_pos_as_xyz
  1  'x, y, z'
loop_
 _atom_site_type_symbol
 _atom_site_label
 _atom_site_symmetry_multiplicity
 _atom_site_fract_x
 _atom_site_fract_y
 _atom_site_fract_z
 _atom_site_occupancy
  Mo  Mo0  1  0.99917266  0.33286486  0.59495381  1
  Mo  Mo1  1  0.00042477  0.66673655  0.59495470  1
  Mo  Mo2  1  0.99979841  0.99979679  0.59411505  1
  Mo  Mo3  1  0.32920373  0.32920347  0.59519538  1
  Mo  Mo4  1  0.33276163  0.66684341  0.59514738  1
  Mo  Mo5  1  0.33286519  0.99917246  0.59495421  1
  Mo  Mo6  1  0.66684255  0.33276243  0.59514744  1
  Mo  Mo7  1  0.67043078  0.67043092  0.59521494  1
  Mo  Mo8  1  0.66673675  0.00042469  0.59495446  1
  Mo  Mo9  1  0.16610533  0.16610446  0.49642618  1
  Mo  Mo10  1  0.16661745  0.49994062  0.49751429  1
  Mo  Mo11  1  0.16707205  0.83275453  0.49733962  1
  Mo  Mo12  1  0.49994033  0.16661698  0.49751419  1
  Mo  Mo13  1  0.49991423  0.49991435  0.49701450  1
  Mo  Mo14  1  0.49988707  0.83320493  0.49751609  1
  Mo  Mo15  1  0.83275482  0.16707150  0.49733919  1
  Mo  Mo16  1  0.83320522  0.49988733  0.49751589  1
  Mo  Mo17  1  0.83371473  0.83371407  0.49642914  1
  Mo  Mo18  1  0.00000000  0.33333300  0.40000000  1
  Mo  Mo19  1  0.00000000  0.66666600  0.40000000  1
  Mo  Mo20  1  1.00000000  1.00000000  0.40000000  1
  Mo  Mo21  1  0.33333300  0.33333300  0.40000000  1
  Mo  Mo22  1  0.33333300  0.66666600  0.40000000  1
  Mo  Mo23  1  0.33333300  1.00000000  0.40000000  1
  Mo  Mo24  1  0.66666700  0.33333300  0.40000000  1
  Mo  Mo25  1  0.66666700  0.66666600  0.40000000  1
  Mo  Mo26  1  0.66666700  1.00000000  0.40000000  1
  H  H27  1  0.49982201  0.49981545  0.64242345  1
