# generated using pymatgen
data_Rh27O
_symmetry_space_group_name_H-M   'P 1'
_cell_length_a   8.03675400
_cell_length_b   8.03670000
_cell_length_c   22.73128200
_cell_angle_alpha   89.99972196
_cell_angle_beta   89.99972196
_cell_angle_gamma   89.99991445
_symmetry_Int_Tables_number   1
_chemical_formula_structural   Rh27O
_chemical_formula_sum   'Rh27 O1'
_cell_volume   1468.19033829
_cell_formula_units_Z   1
loop_
 _symmetry_equiv_pos_site_id
 _symmetry_equiv_pos_as_xyz
  1  'x, y, z'
loop_
 _atom_site_type_symbol
 _atom_site_label
 _atom_site_symmetry_multiplicity
 _atom_site_fract_x
 _atom_site_fract_y
 _atom_site_fract_z
 _atom_site_occupancy
  Rh  Rh0  1  0.99999500  0.99999900  0.45676500  1
  Rh  Rh1  1  0.99998600  0.33332500  0.45675900  1
  Rh  Rh2  1  0.99997900  0.66667100  0.45675400  1
  Rh  Rh3  1  0.33332500  0.99999700  0.45676100  1
  Rh  Rh4  1  0.33334000  0.33333100  0.45675900  1
  Rh  Rh5  1  0.33334900  0.66666500  0.45675400  1
  Rh  Rh6  1  0.66666400  0.99999200  0.45674300  1
  Rh  Rh7  1  0.66666200  0.33334600  0.45674700  1
  Rh  Rh8  1  0.66666200  0.66665800  0.45674400  1
  Rh  Rh9  1  0.16666700  0.16666700  0.37500000  1
  Rh  Rh10  1  0.16666700  0.50000000  0.37500000  1
  Rh  Rh11  1  0.16666700  0.83333300  0.37500000  1
  Rh  Rh12  1  0.50000000  0.16666700  0.37500000  1
  Rh  Rh13  1  0.50000000  0.50000000  0.37500000  1
  Rh  Rh14  1  0.50000000  0.83333300  0.37500000  1
  Rh  Rh15  1  0.83333300  0.16666700  0.37500000  1
  Rh  Rh16  1  0.83333300  0.50000000  0.37500000  1
  Rh  Rh17  1  0.83333300  0.83333300  0.37500000  1
  Rh  Rh18  1  0.16594711  0.16595259  0.53818497  1
  Rh  Rh19  1  0.16400408  0.50000309  0.53830742  1
  Rh  Rh20  1  0.16594625  0.83403628  0.53818341  1
  Rh  Rh21  1  0.50000972  0.16400646  0.53830772  1
  Rh  Rh22  1  0.49999809  0.49999754  0.53991629  1
  Rh  Rh23  1  0.50000708  0.83598567  0.53830800  1
  Rh  Rh24  1  0.83402757  0.16594738  0.53818240  1
  Rh  Rh25  1  0.83597710  0.50000006  0.53830876  1
  Rh  Rh26  1  0.83403073  0.83404444  0.53818280  1
  O  O27  1  0.49998818  0.49999349  0.62052041  1
