# generated using pymatgen
data_Mo27H
_symmetry_space_group_name_H-M   'P 1'
_cell_length_a   8.13431400
_cell_length_b   8.13432797
_cell_length_c   22.13894100
_cell_angle_alpha   90.00084524
_cell_angle_beta   90.00084525
_cell_angle_gamma   109.47202259
_symmetry_Int_Tables_number   1
_chemical_formula_structural   Mo27H
_chemical_formula_sum   'Mo27 H1'
_cell_volume   1381.08702123
_cell_formula_units_Z   1
loop_
 _symmetry_equiv_pos_site_id
 _symmetry_equiv_pos_as_xyz
  1  'x, y, z'
loop_
 _atom_site_type_symbol
 _atom_site_label
 _atom_site_symmetry_multiplicity
 _atom_site_fract_x
 _atom_site_fract_y
 _atom_site_fract_z
 _atom_site_occupancy
  Mo  Mo0  1  0.99916876  0.33379826  0.59514656  1
  Mo  Mo1  1  0.00038305  0.66722064  0.59544354  1
  Mo  Mo2  1  0.99866549  0.99866532  0.59424464  1
  Mo  Mo3  1  0.33429977  0.33429976  0.59424034  1
  Mo  Mo4  1  0.33258493  0.66575013  0.59543793  1
  Mo  Mo5  1  0.33379831  0.99916861  0.59514626  1
  Mo  Mo6  1  0.66575117  0.33258446  0.59543816  1
  Mo  Mo7  1  0.66650860  0.66650943  0.60057240  1
  Mo  Mo8  1  0.66722178  0.00038247  0.59544312  1
  Mo  Mo9  1  0.16659598  0.16659596  0.49782707  1
  Mo  Mo10  1  0.16589550  0.50028329  0.49768681  1
  Mo  Mo11  1  0.16730728  0.83291817  0.49768548  1
  Mo  Mo12  1  0.50028337  0.16589540  0.49768682  1
  Mo  Mo13  1  0.49824240  0.49824224  0.49689551  1
  Mo  Mo14  1  0.50084431  0.83236070  0.49819409  1
  Mo  Mo15  1  0.83291835  0.16730715  0.49768543  1
  Mo  Mo16  1  0.83236106  0.50084395  0.49819470  1
  Mo  Mo17  1  0.83495775  0.83495748  0.49690102  1
  Mo  Mo18  1  0.00000000  0.33333300  0.40000000  1
  Mo  Mo19  1  0.00000000  0.66666600  0.40000000  1
  Mo  Mo20  1  1.00000000  1.00000000  0.40000000  1
  Mo  Mo21  1  0.33333300  0.33333300  0.40000000  1
  Mo  Mo22  1  0.33333300  0.66666600  0.40000000  1
  Mo  Mo23  1  0.33333300  1.00000000  0.40000000  1
  Mo  Mo24  1  0.66666700  0.33333300  0.40000000  1
  Mo  Mo25  1  0.66666700  0.66666600  0.40000000  1
  Mo  Mo26  1  0.66666700  1.00000000  0.40000000  1
  H  H27  1  0.66652510  0.66650800  0.68027643  1
