# generated using pymatgen
data_Mo12CS16O
_symmetry_space_group_name_H-M   'P 1'
_cell_length_a   6.40582443
_cell_length_b   6.40502189
_cell_length_c   27.80788600
_cell_angle_alpha   91.26713631
_cell_angle_beta   91.36148131
_cell_angle_gamma   91.33958978
_symmetry_Int_Tables_number   1
_chemical_formula_structural   Mo12CS16O
_chemical_formula_sum   'Mo12 C1 S16 O1'
_cell_volume   1140.01494538
_cell_formula_units_Z   1
loop_
 _symmetry_equiv_pos_site_id
 _symmetry_equiv_pos_as_xyz
  1  'x, y, z'
loop_
 _atom_site_type_symbol
 _atom_site_label
 _atom_site_symmetry_multiplicity
 _atom_site_fract_x
 _atom_site_fract_y
 _atom_site_fract_z
 _atom_site_occupancy
  Mo  Mo0  1  0.21053600  0.55052600  0.34322700  1
  Mo  Mo1  1  0.21039931  0.55194878  0.57359956  1
  Mo  Mo2  1  0.78652670  0.44860784  0.38653705  1
  Mo  Mo3  1  0.78799957  0.44212687  0.61703395  1
  Mo  Mo4  1  0.40732786  0.21323424  0.37663436  1
  Mo  Mo5  1  0.41311471  0.20951809  0.60613106  1
  Mo  Mo6  1  0.59470900  0.78943200  0.35357800  1
  Mo  Mo7  1  0.59387897  0.78494922  0.58369556  1
  Mo  Mo8  1  0.55045000  0.40548900  0.29849800  1
  Mo  Mo9  1  0.54904581  0.40489168  0.52840228  1
  Mo  Mo10  1  0.44919688  0.59398019  0.43164336  1
  Mo  Mo11  1  0.44822724  0.57944371  0.66133146  1
  S  S12  1  0.13165937  0.38485122  0.41999334  1
  S  S13  1  0.13190969  0.37509762  0.64808810  1
  S  S14  1  0.86792400  0.61363500  0.31056000  1
  S  S15  1  0.86780796  0.60981669  0.54046055  1
  S  S16  1  0.73733500  0.13203700  0.33909000  1
  S  S17  1  0.74108912  0.12777138  0.56711114  1
  S  S18  1  0.26246919  0.86848795  0.39155602  1
  S  S19  1  0.26795788  0.86587508  0.62386336  1
  S  S20  1  0.38668300  0.73747600  0.28032400  1
  S  S21  1  0.38490718  0.73813759  0.51046959  1
  S  S22  1  0.61486764  0.26211464  0.44967007  1
  S  S23  1  0.61856738  0.25169939  0.68039817  1
  S  S24  1  0.21767900  0.21800500  0.30009800  1
  S  S25  1  0.21639012  0.21786795  0.53009193  1
  S  S26  1  0.78259297  0.78161537  0.43036206  1
  S  S27  1  0.78081837  0.77477123  0.66034649  1
  O  O28  1  0.43347089  0.59787043  0.77518169  1
  C  C29  1  0.43434612  0.60524515  0.73311529  1
