# generated using pymatgen
data_Mo27H
_symmetry_space_group_name_H-M   'P 1'
_cell_length_a   8.13431400
_cell_length_b   8.13432797
_cell_length_c   22.13894100
_cell_angle_alpha   90.00084524
_cell_angle_beta   90.00084525
_cell_angle_gamma   109.47202259
_symmetry_Int_Tables_number   1
_chemical_formula_structural   Mo27H
_chemical_formula_sum   'Mo27 H1'
_cell_volume   1381.08702123
_cell_formula_units_Z   1
loop_
 _symmetry_equiv_pos_site_id
 _symmetry_equiv_pos_as_xyz
  1  'x, y, z'
loop_
 _atom_site_type_symbol
 _atom_site_label
 _atom_site_symmetry_multiplicity
 _atom_site_fract_x
 _atom_site_fract_y
 _atom_site_fract_z
 _atom_site_occupancy
  Mo  Mo0  1  0.99910972  0.33301345  0.59501073  1
  Mo  Mo1  1  0.00041076  0.66651422  0.59501362  1
  Mo  Mo2  1  0.99976201  0.99976141  0.59393153  1
  Mo  Mo3  1  0.32936286  0.32936233  0.59565565  1
  Mo  Mo4  1  0.33285391  0.66668367  0.59547957  1
  Mo  Mo5  1  0.33301375  0.99910933  0.59501072  1
  Mo  Mo6  1  0.66668440  0.33285313  0.59547953  1
  Mo  Mo7  1  0.67020041  0.67019969  0.59567412  1
  Mo  Mo8  1  0.66651451  0.00041016  0.59501348  1
  Mo  Mo9  1  0.16602903  0.16602874  0.49650912  1
  Mo  Mo10  1  0.16660649  0.49981519  0.49764097  1
  Mo  Mo11  1  0.16721558  0.83256783  0.49740466  1
  Mo  Mo12  1  0.49981537  0.16660608  0.49764089  1
  Mo  Mo13  1  0.49989486  0.49989443  0.49717464  1
  Mo  Mo14  1  0.49997228  0.83317164  0.49764274  1
  Mo  Mo15  1  0.83256812  0.16721519  0.49740469  1
  Mo  Mo16  1  0.83317215  0.49997193  0.49764279  1
  Mo  Mo17  1  0.83375169  0.83375116  0.49651220  1
  Mo  Mo18  1  0.00000000  0.33333300  0.40000000  1
  Mo  Mo19  1  0.00000000  0.66666600  0.40000000  1
  Mo  Mo20  1  1.00000000  1.00000000  0.40000000  1
  Mo  Mo21  1  0.33333300  0.33333300  0.40000000  1
  Mo  Mo22  1  0.33333300  0.66666600  0.40000000  1
  Mo  Mo23  1  0.33333300  1.00000000  0.40000000  1
  Mo  Mo24  1  0.66666700  0.33333300  0.40000000  1
  Mo  Mo25  1  0.66666700  0.66666600  0.40000000  1
  Mo  Mo26  1  0.66666700  1.00000000  0.40000000  1
  H  H27  1  0.49978276  0.49978741  0.64400241  1
