# generated using pymatgen
data_Mo6S8N
_symmetry_space_group_name_H-M   'P 1'
_cell_length_a   6.40582443
_cell_length_b   6.40502189
_cell_length_c   27.80788600
_cell_angle_alpha   91.26713631
_cell_angle_beta   91.36148131
_cell_angle_gamma   91.33958978
_symmetry_Int_Tables_number   1
_chemical_formula_structural   Mo6S8N
_chemical_formula_sum   'Mo12 S16 N2'
_cell_volume   1140.01494538
_cell_formula_units_Z   2
loop_
 _symmetry_equiv_pos_site_id
 _symmetry_equiv_pos_as_xyz
  1  'x, y, z'
loop_
 _atom_site_type_symbol
 _atom_site_label
 _atom_site_symmetry_multiplicity
 _atom_site_fract_x
 _atom_site_fract_y
 _atom_site_fract_z
 _atom_site_occupancy
  Mo  Mo0  1  0.21053600  0.55052600  0.34322700  1
  Mo  Mo1  1  0.21405972  0.54991392  0.57395779  1
  Mo  Mo2  1  0.78816601  0.44837630  0.38681324  1
  Mo  Mo3  1  0.79247005  0.43899365  0.61785205  1
  Mo  Mo4  1  0.40795380  0.21347133  0.37670348  1
  Mo  Mo5  1  0.41475737  0.20606861  0.60676038  1
  Mo  Mo6  1  0.59470900  0.78943200  0.35357800  1
  Mo  Mo7  1  0.59730233  0.78340077  0.58413859  1
  Mo  Mo8  1  0.55045000  0.40548900  0.29849800  1
  Mo  Mo9  1  0.55072819  0.40362721  0.52889662  1
  Mo  Mo10  1  0.45143275  0.59491881  0.43188151  1
  Mo  Mo11  1  0.45669418  0.57572212  0.66067968  1
  S  S12  1  0.13315280  0.38678967  0.41998004  1
  S  S13  1  0.13658427  0.37526867  0.64887583  1
  S  S14  1  0.86792400  0.61363500  0.31056000  1
  S  S15  1  0.87039042  0.60724628  0.54119173  1
  S  S16  1  0.73733500  0.13203700  0.33909000  1
  S  S17  1  0.74303367  0.12593473  0.56803684  1
  S  S18  1  0.26308477  0.86909970  0.39152510  1
  S  S19  1  0.27283425  0.86268035  0.62447827  1
  S  S20  1  0.38668300  0.73747600  0.28032400  1
  S  S21  1  0.38700107  0.73846784  0.51098053  1
  S  S22  1  0.61550828  0.26182826  0.44993904  1
  S  S23  1  0.62127027  0.24744516  0.68100816  1
  S  S24  1  0.21767900  0.21800500  0.30009800  1
  S  S25  1  0.21736727  0.21540474  0.53083924  1
  S  S26  1  0.78496470  0.78156728  0.43043738  1
  S  S27  1  0.78638423  0.77226187  0.66055795  1
  N  N28  1  0.43307418  0.63152149  0.73440253  1
  N  N29  1  0.42579276  0.64760563  0.77471764  1
