# generated using pymatgen
data_Ag27HN2
_symmetry_space_group_name_H-M   'P 1'
_cell_length_a   8.60496519
_cell_length_b   8.60496881
_cell_length_c   23.47925300
_cell_angle_alpha   90.00483404
_cell_angle_beta   93.49762144
_cell_angle_gamma   119.99565775
_symmetry_Int_Tables_number   1
_chemical_formula_structural   Ag27HN2
_chemical_formula_sum   'Ag27 H1 N2'
_cell_volume   1501.93330901
_cell_formula_units_Z   1
loop_
 _symmetry_equiv_pos_site_id
 _symmetry_equiv_pos_as_xyz
  1  'x, y, z'
loop_
 _atom_site_type_symbol
 _atom_site_label
 _atom_site_symmetry_multiplicity
 _atom_site_fract_x
 _atom_site_fract_y
 _atom_site_fract_z
 _atom_site_occupancy
  Ag  Ag0  1  0.20000000  0.26666700  0.40000000  1
  Ag  Ag1  1  0.20000000  0.60000000  0.40000000  1
  Ag  Ag2  1  0.20000000  0.93333300  0.40000000  1
  Ag  Ag3  1  0.53333300  0.26666700  0.40000000  1
  Ag  Ag4  1  0.53333300  0.60000000  0.40000000  1
  Ag  Ag5  1  0.53333300  0.93333300  0.40000000  1
  Ag  Ag6  1  0.86666700  0.26666700  0.40000000  1
  Ag  Ag7  1  0.86666700  0.60000000  0.40000000  1
  Ag  Ag8  1  0.86666700  0.93333300  0.40000000  1
  Ag  Ag9  1  0.33373892  0.16704119  0.50123206  1
  Ag  Ag10  1  0.33393846  0.49993260  0.50117376  1
  Ag  Ag11  1  0.33318172  0.83322144  0.50087681  1
  Ag  Ag12  1  0.66733495  0.16693745  0.50136651  1
  Ag  Ag13  1  0.66617358  0.49982856  0.50138209  1
  Ag  Ag14  1  0.66710525  0.83370262  0.50136577  1
  Ag  Ag15  1  0.00001728  0.16690851  0.50134089  1
  Ag  Ag16  1  0.00039126  0.50048591  0.50109567  1
  Ag  Ag17  1  0.00025204  0.83313083  0.50086644  1
  Ag  Ag18  1  0.13155915  0.06442733  0.60181304  1
  Ag  Ag19  1  0.13194145  0.40014827  0.60216520  1
  Ag  Ag20  1  0.13386635  0.73348496  0.60270718  1
  Ag  Ag21  1  0.46692706  0.06485683  0.60190054  1
  Ag  Ag22  1  0.46590014  0.39977694  0.60071817  1
  Ag  Ag23  1  0.46740853  0.73545824  0.60189821  1
  Ag  Ag24  1  0.80081264  0.06714356  0.60327040  1
  Ag  Ag25  1  0.80168474  0.40011186  0.60226535  1
  Ag  Ag26  1  0.80170396  0.73508236  0.60201860  1
  N  N27  1  0.47884645  0.40341587  0.69655369  1
  N  N28  1  0.46832697  0.40578343  0.74616024  1
  H  H29  1  0.57074775  0.40986571  0.77465857  1
