# generated using pymatgen
data_Au27O
_symmetry_space_group_name_H-M   'P 1'
_cell_length_a   8.57606266
_cell_length_b   8.57606266
_cell_length_c   23.65109797
_cell_angle_alpha   88.12641697
_cell_angle_beta   88.12641697
_cell_angle_gamma   63.40130658
_symmetry_Int_Tables_number   1
_chemical_formula_structural   Au27O
_chemical_formula_sum   'Au27 O1'
_cell_volume   1554.26011481
_cell_formula_units_Z   1
loop_
 _symmetry_equiv_pos_site_id
 _symmetry_equiv_pos_as_xyz
  1  'x, y, z'
loop_
 _atom_site_type_symbol
 _atom_site_label
 _atom_site_symmetry_multiplicity
 _atom_site_fract_x
 _atom_site_fract_y
 _atom_site_fract_z
 _atom_site_occupancy
  Au  Au0  1  0.20393035  0.20393031  0.60548788  1
  Au  Au1  1  0.19747425  0.53896213  0.60482406  1
  Au  Au2  1  0.19551407  0.87544804  0.60469094  1
  Au  Au3  1  0.53896220  0.19747417  0.60482407  1
  Au  Au4  1  0.53478333  0.53478325  0.60997669  1
  Au  Au5  1  0.53070981  0.87417051  0.60499142  1
  Au  Au6  1  0.87544805  0.19551405  0.60469095  1
  Au  Au7  1  0.87417058  0.53070970  0.60499143  1
  Au  Au8  1  0.86651152  0.86651148  0.60487743  1
  Au  Au9  1  0.99895971  0.33367243  0.50252423  1
  Au  Au10  1  0.00142304  0.66786196  0.50194551  1
  Au  Au11  1  0.00016137  0.00016132  0.50153153  1
  Au  Au12  1  0.33264074  0.33264071  0.50329841  1
  Au  Au13  1  0.33925150  0.66235790  0.50520505  1
  Au  Au14  1  0.33367242  0.99895969  0.50252424  1
  Au  Au15  1  0.66235792  0.33925148  0.50520505  1
  Au  Au16  1  0.66732167  0.66732162  0.50457453  1
  Au  Au17  1  0.66786202  0.00142297  0.50194551  1
  Au  Au18  1  0.13333300  0.13333300  0.40000000  1
  Au  Au19  1  0.13333300  0.46666600  0.40000000  1
  Au  Au20  1  0.13333300  0.80000000  0.40000000  1
  Au  Au21  1  0.46666600  0.13333300  0.40000000  1
  Au  Au22  1  0.46666700  0.46666700  0.40000000  1
  Au  Au23  1  0.46666700  0.80000000  0.40000000  1
  Au  Au24  1  0.80000000  0.13333300  0.40000000  1
  Au  Au25  1  0.80000000  0.46666700  0.40000000  1
  Au  Au26  1  0.80000000  0.80000000  0.40000000  1
  O  O27  1  0.53096768  0.53096767  0.69529181  1
