# generated using pymatgen
data_Ag27O
_symmetry_space_group_name_H-M   'P 1'
_cell_length_a   8.60496519
_cell_length_b   8.60496881
_cell_length_c   23.47925300
_cell_angle_alpha   90.00483404
_cell_angle_beta   93.49762144
_cell_angle_gamma   119.99565775
_symmetry_Int_Tables_number   1
_chemical_formula_structural   Ag27O
_chemical_formula_sum   'Ag27 O1'
_cell_volume   1501.93330901
_cell_formula_units_Z   1
loop_
 _symmetry_equiv_pos_site_id
 _symmetry_equiv_pos_as_xyz
  1  'x, y, z'
loop_
 _atom_site_type_symbol
 _atom_site_label
 _atom_site_symmetry_multiplicity
 _atom_site_fract_x
 _atom_site_fract_y
 _atom_site_fract_z
 _atom_site_occupancy
  Ag  Ag0  1  0.20000000  0.26666700  0.40000000  1
  Ag  Ag1  1  0.20000000  0.60000000  0.40000000  1
  Ag  Ag2  1  0.20000000  0.93333300  0.40000000  1
  Ag  Ag3  1  0.53333300  0.26666700  0.40000000  1
  Ag  Ag4  1  0.53333300  0.60000000  0.40000000  1
  Ag  Ag5  1  0.53333300  0.93333300  0.40000000  1
  Ag  Ag6  1  0.86666700  0.26666700  0.40000000  1
  Ag  Ag7  1  0.86666700  0.60000000  0.40000000  1
  Ag  Ag8  1  0.86666700  0.93333300  0.40000000  1
  Ag  Ag9  1  0.34004240  0.16980443  0.50246659  1
  Ag  Ag10  1  0.34004895  0.50357415  0.50246459  1
  Ag  Ag11  1  0.33922397  0.83629189  0.50235233  1
  Ag  Ag12  1  0.67366694  0.17085399  0.50233343  1
  Ag  Ag13  1  0.66899445  0.50117791  0.50221279  1
  Ag  Ag14  1  0.67367319  0.83617693  0.50233945  1
  Ag  Ag15  1  0.00640055  0.16986505  0.50237865  1
  Ag  Ag16  1  0.00877133  0.50119774  0.50227537  1
  Ag  Ag17  1  0.00874597  0.84088139  0.50227649  1
  Ag  Ag18  1  0.13710705  0.05908624  0.60480715  1
  Ag  Ag19  1  0.13712855  0.41138547  0.60480723  1
  Ag  Ag20  1  0.14328723  0.73831913  0.60322032  1
  Ag  Ag21  1  0.47768769  0.07060184  0.60367216  1
  Ag  Ag22  1  0.48950749  0.41144372  0.60495405  1
  Ag  Ag23  1  0.47767091  0.74044517  0.60367468  1
  Ag  Ag24  1  0.80782287  0.07060785  0.60359745  1
  Ag  Ag25  1  0.80971834  0.40492461  0.60310998  1
  Ag  Ag26  1  0.80971690  0.73815335  0.60312380  1
  O  O27  1  0.26644279  0.29988894  0.65868755  1
