# generated using pymatgen
data_HAu27CO
_symmetry_space_group_name_H-M   'P 1'
_cell_length_a   8.57606266
_cell_length_b   8.57606266
_cell_length_c   23.65109797
_cell_angle_alpha   88.12641697
_cell_angle_beta   88.12641697
_cell_angle_gamma   63.40130658
_symmetry_Int_Tables_number   1
_chemical_formula_structural   HAu27CO
_chemical_formula_sum   'H1 Au27 C1 O1'
_cell_volume   1554.26011481
_cell_formula_units_Z   1
loop_
 _symmetry_equiv_pos_site_id
 _symmetry_equiv_pos_as_xyz
  1  'x, y, z'
loop_
 _atom_site_type_symbol
 _atom_site_label
 _atom_site_symmetry_multiplicity
 _atom_site_fract_x
 _atom_site_fract_y
 _atom_site_fract_z
 _atom_site_occupancy
  Au  Au0  1  0.21816972  0.22167078  0.60645112  1
  Au  Au1  1  0.18885590  0.56889187  0.61564116  1
  Au  Au2  1  0.20934901  0.89483002  0.60655175  1
  Au  Au3  1  0.56029679  0.20865837  0.61822561  1
  Au  Au4  1  0.55284821  0.56549763  0.60636164  1
  Au  Au5  1  0.54395111  0.89446417  0.60783382  1
  Au  Au6  1  0.89066267  0.21593591  0.60810881  1
  Au  Au7  1  0.87813848  0.55414813  0.60672594  1
  Au  Au8  1  0.87676465  0.88993699  0.60775917  1
  Au  Au9  1  0.00868295  0.34207172  0.50405613  1
  Au  Au10  1  0.01137294  0.67232976  0.50560485  1
  Au  Au11  1  0.00484746  0.00854158  0.50325638  1
  Au  Au12  1  0.34259944  0.34346468  0.50546457  1
  Au  Au13  1  0.34021439  0.67570634  0.50449323  1
  Au  Au14  1  0.33984732  0.01014118  0.50354269  1
  Au  Au15  1  0.67401553  0.34418306  0.50484113  1
  Au  Au16  1  0.67238279  0.67843207  0.50392180  1
  Au  Au17  1  0.66869788  0.01633106  0.50527728  1
  Au  Au18  1  0.13333300  0.13333300  0.40000000  1
  Au  Au19  1  0.13333300  0.46666600  0.40000000  1
  Au  Au20  1  0.13333300  0.80000000  0.40000000  1
  Au  Au21  1  0.46666600  0.13333300  0.40000000  1
  Au  Au22  1  0.46666700  0.46666700  0.40000000  1
  Au  Au23  1  0.46666700  0.80000000  0.40000000  1
  Au  Au24  1  0.80000000  0.13333300  0.40000000  1
  Au  Au25  1  0.80000000  0.46666700  0.40000000  1
  Au  Au26  1  0.80000000  0.80000000  0.40000000  1
  C  C27  1  0.42275721  0.45346189  0.65743469  1
  H  H28  1  0.53733754  0.43261855  0.72853667  1
  O  O29  1  0.41904321  0.46496790  0.71465340  1
