# generated using pymatgen
data_Ag27HO2
_symmetry_space_group_name_H-M   'P 1'
_cell_length_a   8.60496519
_cell_length_b   8.60496881
_cell_length_c   23.47925300
_cell_angle_alpha   90.00483404
_cell_angle_beta   93.49762144
_cell_angle_gamma   119.99565775
_symmetry_Int_Tables_number   1
_chemical_formula_structural   Ag27HO2
_chemical_formula_sum   'Ag27 H1 O2'
_cell_volume   1501.93330901
_cell_formula_units_Z   1
loop_
 _symmetry_equiv_pos_site_id
 _symmetry_equiv_pos_as_xyz
  1  'x, y, z'
loop_
 _atom_site_type_symbol
 _atom_site_label
 _atom_site_symmetry_multiplicity
 _atom_site_fract_x
 _atom_site_fract_y
 _atom_site_fract_z
 _atom_site_occupancy
  Ag  Ag0  1  0.20000000  0.26666700  0.40000000  1
  Ag  Ag1  1  0.20000000  0.60000000  0.40000000  1
  Ag  Ag2  1  0.20000000  0.93333300  0.40000000  1
  Ag  Ag3  1  0.53333300  0.26666700  0.40000000  1
  Ag  Ag4  1  0.53333300  0.60000000  0.40000000  1
  Ag  Ag5  1  0.53333300  0.93333300  0.40000000  1
  Ag  Ag6  1  0.86666700  0.26666700  0.40000000  1
  Ag  Ag7  1  0.86666700  0.60000000  0.40000000  1
  Ag  Ag8  1  0.86666700  0.93333300  0.40000000  1
  Ag  Ag9  1  0.33548064  0.16882163  0.50290257  1
  Ag  Ag10  1  0.33566092  0.50036098  0.50341346  1
  Ag  Ag11  1  0.33430476  0.83440215  0.50201603  1
  Ag  Ag12  1  0.66847310  0.16832448  0.50246056  1
  Ag  Ag13  1  0.66597295  0.50043304  0.50385939  1
  Ag  Ag14  1  0.66838490  0.83502581  0.50235094  1
  Ag  Ag15  1  0.00173581  0.16842510  0.50246981  1
  Ag  Ag16  1  0.00205298  0.50159343  0.50214448  1
  Ag  Ag17  1  0.00106670  0.83382396  0.50171895  1
  Ag  Ag18  1  0.13188503  0.06428345  0.60307820  1
  Ag  Ag19  1  0.13557430  0.40186647  0.60478424  1
  Ag  Ag20  1  0.13649461  0.73514047  0.60445079  1
  Ag  Ag21  1  0.46940387  0.06708445  0.60402291  1
  Ag  Ag22  1  0.47139673  0.40127416  0.60708411  1
  Ag  Ag23  1  0.47050942  0.73777621  0.60402056  1
  Ag  Ag24  1  0.80310806  0.06903028  0.60518069  1
  Ag  Ag25  1  0.80577887  0.40260236  0.60439734  1
  Ag  Ag26  1  0.80353104  0.73645805  0.60472133  1
  O  O27  1  0.40628262  0.34945258  0.69929205  1
  O  O28  1  0.54945611  0.48515065  0.74033792  1
  H  H29  1  0.56406370  0.59929059  0.72594260  1
