# generated using pymatgen
data_Ag27N2
_symmetry_space_group_name_H-M   'P 1'
_cell_length_a   8.60496519
_cell_length_b   8.60496881
_cell_length_c   23.47925300
_cell_angle_alpha   90.00483404
_cell_angle_beta   93.49762144
_cell_angle_gamma   119.99565775
_symmetry_Int_Tables_number   1
_chemical_formula_structural   Ag27N2
_chemical_formula_sum   'Ag27 N2'
_cell_volume   1501.93330901
_cell_formula_units_Z   1
loop_
 _symmetry_equiv_pos_site_id
 _symmetry_equiv_pos_as_xyz
  1  'x, y, z'
loop_
 _atom_site_type_symbol
 _atom_site_label
 _atom_site_symmetry_multiplicity
 _atom_site_fract_x
 _atom_site_fract_y
 _atom_site_fract_z
 _atom_site_occupancy
  Ag  Ag0  1  0.20000000  0.26666700  0.40000000  1
  Ag  Ag1  1  0.20000000  0.60000000  0.40000000  1
  Ag  Ag2  1  0.20000000  0.93333300  0.40000000  1
  Ag  Ag3  1  0.53333300  0.26666700  0.40000000  1
  Ag  Ag4  1  0.53333300  0.60000000  0.40000000  1
  Ag  Ag5  1  0.53333300  0.93333300  0.40000000  1
  Ag  Ag6  1  0.86666700  0.26666700  0.40000000  1
  Ag  Ag7  1  0.86666700  0.60000000  0.40000000  1
  Ag  Ag8  1  0.86666700  0.93333300  0.40000000  1
  Ag  Ag9  1  0.33350936  0.16666371  0.50139997  1
  Ag  Ag10  1  0.33351432  0.50019040  0.50139893  1
  Ag  Ag11  1  0.33323481  0.83328926  0.50154286  1
  Ag  Ag12  1  0.66738685  0.16658565  0.50199628  1
  Ag  Ag13  1  0.66705258  0.50020248  0.50152899  1
  Ag  Ag14  1  0.66739457  0.83414829  0.50200033  1
  Ag  Ag15  1  0.99971565  0.16652697  0.50187960  1
  Ag  Ag16  1  0.00039644  0.50057566  0.50152114  1
  Ag  Ag17  1  0.00039861  0.83316829  0.50152174  1
  Ag  Ag18  1  0.13249652  0.06549614  0.60286403  1
  Ag  Ag19  1  0.13248893  0.40035687  0.60287067  1
  Ag  Ag20  1  0.13412091  0.73374344  0.60409128  1
  Ag  Ag21  1  0.46717315  0.06572317  0.60304398  1
  Ag  Ag22  1  0.46685629  0.40012407  0.60126144  1
  Ag  Ag23  1  0.46717311  0.73480879  0.60304793  1
  Ag  Ag24  1  0.80098625  0.06716747  0.60483074  1
  Ag  Ag25  1  0.80166687  0.40041373  0.60319841  1
  Ag  Ag26  1  0.80167693  0.73462272  0.60320029  1
  N  N27  1  0.47617128  0.40465369  0.71091823  1
  N  N28  1  0.48109252  0.40719601  0.75819696  1
