# generated using pymatgen
data_Ag27O
_symmetry_space_group_name_H-M   'P 1'
_cell_length_a   8.60496519
_cell_length_b   8.60496881
_cell_length_c   23.47925300
_cell_angle_alpha   90.00483404
_cell_angle_beta   93.49762144
_cell_angle_gamma   119.99565775
_symmetry_Int_Tables_number   1
_chemical_formula_structural   Ag27O
_chemical_formula_sum   'Ag27 O1'
_cell_volume   1501.93330901
_cell_formula_units_Z   1
loop_
 _symmetry_equiv_pos_site_id
 _symmetry_equiv_pos_as_xyz
  1  'x, y, z'
loop_
 _atom_site_type_symbol
 _atom_site_label
 _atom_site_symmetry_multiplicity
 _atom_site_fract_x
 _atom_site_fract_y
 _atom_site_fract_z
 _atom_site_occupancy
  Ag  Ag0  1  0.20000000  0.26666700  0.40000000  1
  Ag  Ag1  1  0.20000000  0.60000000  0.40000000  1
  Ag  Ag2  1  0.20000000  0.93333300  0.40000000  1
  Ag  Ag3  1  0.53333300  0.26666700  0.40000000  1
  Ag  Ag4  1  0.53333300  0.60000000  0.40000000  1
  Ag  Ag5  1  0.53333300  0.93333300  0.40000000  1
  Ag  Ag6  1  0.86666700  0.26666700  0.40000000  1
  Ag  Ag7  1  0.86666700  0.60000000  0.40000000  1
  Ag  Ag8  1  0.86666700  0.93333300  0.40000000  1
  Ag  Ag9  1  0.33660228  0.16821082  0.50252577  1
  Ag  Ag10  1  0.33660857  0.50174857  0.50252834  1
  Ag  Ag11  1  0.33562519  0.83449791  0.50221149  1
  Ag  Ag12  1  0.67024822  0.16919107  0.50221171  1
  Ag  Ag13  1  0.66562127  0.49950232  0.50248046  1
  Ag  Ag14  1  0.67025074  0.83443013  0.50221744  1
  Ag  Ag15  1  0.00310055  0.16822479  0.50246186  1
  Ag  Ag16  1  0.00528544  0.49951160  0.50245250  1
  Ag  Ag17  1  0.00526318  0.83911654  0.50244947  1
  Ag  Ag18  1  0.13265685  0.05762791  0.60488634  1
  Ag  Ag19  1  0.13265515  0.40842866  0.60488964  1
  Ag  Ag20  1  0.13828486  0.73584652  0.60335884  1
  Ag  Ag21  1  0.47280793  0.06779853  0.60342694  1
  Ag  Ag22  1  0.48359460  0.40849876  0.60503935  1
  Ag  Ag23  1  0.47280370  0.73838618  0.60343613  1
  Ag  Ag24  1  0.80225360  0.06782391  0.60339183  1
  Ag  Ag25  1  0.80466646  0.40225395  0.60337090  1
  Ag  Ag26  1  0.80468180  0.73581496  0.60337740  1
  O  O27  1  0.26209197  0.29774945  0.66161237  1
