# generated using pymatgen
data_HAu27CO
_symmetry_space_group_name_H-M   'P 1'
_cell_length_a   8.57606266
_cell_length_b   8.57606266
_cell_length_c   23.65109797
_cell_angle_alpha   88.12641697
_cell_angle_beta   88.12641697
_cell_angle_gamma   63.40130658
_symmetry_Int_Tables_number   1
_chemical_formula_structural   HAu27CO
_chemical_formula_sum   'H1 Au27 C1 O1'
_cell_volume   1554.26011481
_cell_formula_units_Z   1
loop_
 _symmetry_equiv_pos_site_id
 _symmetry_equiv_pos_as_xyz
  1  'x, y, z'
loop_
 _atom_site_type_symbol
 _atom_site_label
 _atom_site_symmetry_multiplicity
 _atom_site_fract_x
 _atom_site_fract_y
 _atom_site_fract_z
 _atom_site_occupancy
  Au  Au0  1  0.20554283  0.20630526  0.60784126  1
  Au  Au1  1  0.20383284  0.54070961  0.60763323  1
  Au  Au2  1  0.19997360  0.87646347  0.60752501  1
  Au  Au3  1  0.53993646  0.20450893  0.60767265  1
  Au  Au4  1  0.54020560  0.54165287  0.61333085  1
  Au  Au5  1  0.53242341  0.88187320  0.60478510  1
  Au  Au6  1  0.87557426  0.20134534  0.60689795  1
  Au  Au7  1  0.88210135  0.53450731  0.60327736  1
  Au  Au8  1  0.86983982  0.87171074  0.60643151  1
  Au  Au9  1  0.00119610  0.33280851  0.50253466  1
  Au  Au10  1  0.00431325  0.66898282  0.50234236  1
  Au  Au11  1  0.00134450  0.00104613  0.50281706  1
  Au  Au12  1  0.33385695  0.33367711  0.50430761  1
  Au  Au13  1  0.34121566  0.66310082  0.50657774  1
  Au  Au14  1  0.33319109  0.00102275  0.50264168  1
  Au  Au15  1  0.66304068  0.34108925  0.50620467  1
  Au  Au16  1  0.66920215  0.67019682  0.50454632  1
  Au  Au17  1  0.66837034  0.00429780  0.50264728  1
  Au  Au18  1  0.13333300  0.13333300  0.40000000  1
  Au  Au19  1  0.13333300  0.46666600  0.40000000  1
  Au  Au20  1  0.13333300  0.80000000  0.40000000  1
  Au  Au21  1  0.46666600  0.13333300  0.40000000  1
  Au  Au22  1  0.46666700  0.46666700  0.40000000  1
  Au  Au23  1  0.46666700  0.80000000  0.40000000  1
  Au  Au24  1  0.80000000  0.13333300  0.40000000  1
  Au  Au25  1  0.80000000  0.46666700  0.40000000  1
  Au  Au26  1  0.80000000  0.80000000  0.40000000  1
  C  C27  1  0.56502623  0.54811197  0.69976357  1
  H  H28  1  0.47975032  0.50565004  0.72611958  1
  O  O29  1  0.66225210  0.59307305  0.72304929  1
