# generated using pymatgen
data_Te16Mo12CO
_symmetry_space_group_name_H-M   'P 1'
_cell_length_a   7.04082001
_cell_length_b   7.04195269
_cell_length_c   29.08263700
_cell_angle_alpha   92.42233475
_cell_angle_beta   92.43396473
_cell_angle_gamma   92.45457226
_symmetry_Int_Tables_number   1
_chemical_formula_structural   Te16Mo12CO
_chemical_formula_sum   'Te16 Mo12 C1 O1'
_cell_volume   1437.92269216
_cell_formula_units_Z   1
loop_
 _symmetry_equiv_pos_site_id
 _symmetry_equiv_pos_as_xyz
  1  'x, y, z'
loop_
 _atom_site_type_symbol
 _atom_site_label
 _atom_site_symmetry_multiplicity
 _atom_site_fract_x
 _atom_site_fract_y
 _atom_site_fract_z
 _atom_site_occupancy
  Mo  Mo0  1  0.24239552  0.54752172  0.35187969  1
  Mo  Mo1  1  0.24540973  0.53082398  0.59587333  1
  Mo  Mo2  1  0.75763783  0.45828938  0.39023371  1
  Mo  Mo3  1  0.76701264  0.44036455  0.63211403  1
  Mo  Mo4  1  0.41825926  0.24456985  0.38151608  1
  Mo  Mo5  1  0.43349412  0.22236516  0.62362302  1
  Mo  Mo6  1  0.57404729  0.76021490  0.36100589  1
  Mo  Mo7  1  0.58490707  0.74564238  0.60360435  1
  Mo  Mo8  1  0.54335900  0.41937700  0.30833700  1
  Mo  Mo9  1  0.54813445  0.41170471  0.55171070  1
  Mo  Mo10  1  0.45436177  0.58073196  0.43461157  1
  Mo  Mo11  1  0.46404832  0.56143166  0.67913063  1
  Te  Te12  1  0.11513128  0.37503494  0.43161912  1
  Te  Te13  1  0.12223871  0.35579794  0.67452893  1
  Te  Te14  1  0.88219500  0.62512800  0.31051700  1
  Te  Te15  1  0.88915475  0.61775208  0.55364470  1
  Te  Te16  1  0.74986000  0.11788600  0.34077800  1
  Te  Te17  1  0.75401002  0.10385257  0.58016826  1
  Te  Te18  1  0.25039304  0.88424978  0.40371835  1
  Te  Te19  1  0.26247728  0.86504557  0.65011609  1
  Te  Te20  1  0.37496100  0.74994600  0.27852400  1
  Te  Te21  1  0.37227541  0.74022768  0.52281634  1
  Te  Te22  1  0.62635299  0.24982905  0.46300742  1
  Te  Te23  1  0.63317612  0.23985365  0.70639048  1
  Te  Te24  1  0.20510400  0.20534500  0.29972100  1
  Te  Te25  1  0.21112622  0.19413689  0.54328148  1
  Te  Te26  1  0.79162125  0.79468498  0.44266123  1
  Te  Te27  1  0.79412492  0.78149365  0.68529239  1
  O  O28  1  0.43130921  0.64153751  0.78724195  1
  C  C29  1  0.44196287  0.61688772  0.74762807  1
