# generated using pymatgen
data_Ag27HO
_symmetry_space_group_name_H-M   'P 1'
_cell_length_a   8.60496519
_cell_length_b   8.60496881
_cell_length_c   23.47925300
_cell_angle_alpha   90.00483404
_cell_angle_beta   93.49762144
_cell_angle_gamma   119.99565775
_symmetry_Int_Tables_number   1
_chemical_formula_structural   Ag27HO
_chemical_formula_sum   'Ag27 H1 O1'
_cell_volume   1501.93330901
_cell_formula_units_Z   1
loop_
 _symmetry_equiv_pos_site_id
 _symmetry_equiv_pos_as_xyz
  1  'x, y, z'
loop_
 _atom_site_type_symbol
 _atom_site_label
 _atom_site_symmetry_multiplicity
 _atom_site_fract_x
 _atom_site_fract_y
 _atom_site_fract_z
 _atom_site_occupancy
  Ag  Ag0  1  0.20000000  0.26666700  0.40000000  1
  Ag  Ag1  1  0.20000000  0.60000000  0.40000000  1
  Ag  Ag2  1  0.20000000  0.93333300  0.40000000  1
  Ag  Ag3  1  0.53333300  0.26666700  0.40000000  1
  Ag  Ag4  1  0.53333300  0.60000000  0.40000000  1
  Ag  Ag5  1  0.53333300  0.93333300  0.40000000  1
  Ag  Ag6  1  0.86666700  0.26666700  0.40000000  1
  Ag  Ag7  1  0.86666700  0.60000000  0.40000000  1
  Ag  Ag8  1  0.86666700  0.93333300  0.40000000  1
  Ag  Ag9  1  0.33323199  0.16811290  0.50262132  1
  Ag  Ag10  1  0.33311686  0.49929939  0.50243641  1
  Ag  Ag11  1  0.33188766  0.83300430  0.50184045  1
  Ag  Ag12  1  0.66549873  0.16657803  0.50197568  1
  Ag  Ag13  1  0.66304328  0.49851360  0.50340086  1
  Ag  Ag14  1  0.66549170  0.83276548  0.50198363  1
  Ag  Ag15  1  0.99928864  0.16643694  0.50184607  1
  Ag  Ag16  1  0.99900277  0.50027358  0.50135814  1
  Ag  Ag17  1  0.99926567  0.83310991  0.50157556  1
  Ag  Ag18  1  0.12982823  0.06435790  0.60298683  1
  Ag  Ag19  1  0.12854058  0.39999776  0.60228738  1
  Ag  Ag20  1  0.13219408  0.73344788  0.60345978  1
  Ag  Ag21  1  0.46613665  0.06542776  0.60342564  1
  Ag  Ag22  1  0.46597653  0.40073233  0.60565710  1
  Ag  Ag23  1  0.46582562  0.73524997  0.60330488  1
  Ag  Ag24  1  0.79897808  0.06660780  0.60395203  1
  Ag  Ag25  1  0.79993958  0.39991720  0.60359199  1
  Ag  Ag26  1  0.80048830  0.73483303  0.60365044  1
  O  O27  1  0.41268719  0.38041380  0.69599014  1
  H  H28  1  0.53172331  0.41981360  0.71514828  1
