# generated using pymatgen
data_HAu27
_symmetry_space_group_name_H-M   'P 1'
_cell_length_a   8.57606266
_cell_length_b   8.57606266
_cell_length_c   23.65109797
_cell_angle_alpha   88.12641697
_cell_angle_beta   88.12641697
_cell_angle_gamma   63.40130658
_symmetry_Int_Tables_number   1
_chemical_formula_structural   HAu27
_chemical_formula_sum   'H1 Au27'
_cell_volume   1554.26011481
_cell_formula_units_Z   1
loop_
 _symmetry_equiv_pos_site_id
 _symmetry_equiv_pos_as_xyz
  1  'x, y, z'
loop_
 _atom_site_type_symbol
 _atom_site_label
 _atom_site_symmetry_multiplicity
 _atom_site_fract_x
 _atom_site_fract_y
 _atom_site_fract_z
 _atom_site_occupancy
  Au  Au0  1  0.21002285  0.21002293  0.60745708  1
  Au  Au1  1  0.21326723  0.54199970  0.60618342  1
  Au  Au2  1  0.20365995  0.87864054  0.60724699  1
  Au  Au3  1  0.54199965  0.21326728  0.60618344  1
  Au  Au4  1  0.54235640  0.54235652  0.60921163  1
  Au  Au5  1  0.53320843  0.88836957  0.61012946  1
  Au  Au6  1  0.87864052  0.20366002  0.60724701  1
  Au  Au7  1  0.88836946  0.53320854  0.61012945  1
  Au  Au8  1  0.87470523  0.87470536  0.60715980  1
  Au  Au9  1  0.00229553  0.33842300  0.50427818  1
  Au  Au10  1  0.00347744  0.67123312  0.50405780  1
  Au  Au11  1  0.00427051  0.00427059  0.50274763  1
  Au  Au12  1  0.33672247  0.33672252  0.50276459  1
  Au  Au13  1  0.33924362  0.66970537  0.50419879  1
  Au  Au14  1  0.33842295  0.00229557  0.50427820  1
  Au  Au15  1  0.66970531  0.33924374  0.50419881  1
  Au  Au16  1  0.67150671  0.67150670  0.50368244  1
  Au  Au17  1  0.67123311  0.00347744  0.50405780  1
  Au  Au18  1  0.13333300  0.13333300  0.40000000  1
  Au  Au19  1  0.13333300  0.46666600  0.40000000  1
  Au  Au20  1  0.13333300  0.80000000  0.40000000  1
  Au  Au21  1  0.46666600  0.13333300  0.40000000  1
  Au  Au22  1  0.46666700  0.46666700  0.40000000  1
  Au  Au23  1  0.46666700  0.80000000  0.40000000  1
  Au  Au24  1  0.80000000  0.13333300  0.40000000  1
  Au  Au25  1  0.80000000  0.46666700  0.40000000  1
  Au  Au26  1  0.80000000  0.80000000  0.40000000  1
  H  H27  1  0.65943186  0.65943191  0.63987053  1
