# generated using pymatgen
data_HPt27
_symmetry_space_group_name_H-M   'P 1'
_cell_length_a   8.30585400
_cell_length_b   8.30548202
_cell_length_c   23.49208800
_cell_angle_alpha   89.99751652
_cell_angle_beta   89.99900665
_cell_angle_gamma   89.99635752
_symmetry_Int_Tables_number   1
_chemical_formula_structural   HPt27
_chemical_formula_sum   'H1 Pt27'
_cell_volume   1620.58103859
_cell_formula_units_Z   1
loop_
 _symmetry_equiv_pos_site_id
 _symmetry_equiv_pos_as_xyz
  1  'x, y, z'
loop_
 _atom_site_type_symbol
 _atom_site_label
 _atom_site_symmetry_multiplicity
 _atom_site_fract_x
 _atom_site_fract_y
 _atom_site_fract_z
 _atom_site_occupancy
  Pt  Pt0  1  0.00000000  0.00000000  0.45833200  1
  Pt  Pt1  1  0.00000000  0.33333400  0.45833200  1
  Pt  Pt2  1  0.00000000  0.66666700  0.45833200  1
  Pt  Pt3  1  0.33333400  0.00000000  0.45833200  1
  Pt  Pt4  1  0.33333400  0.33333400  0.45833200  1
  Pt  Pt5  1  0.33333400  0.66666700  0.45833200  1
  Pt  Pt6  1  0.66666700  0.00000000  0.45833200  1
  Pt  Pt7  1  0.66666700  0.33333400  0.45833200  1
  Pt  Pt8  1  0.66666700  0.66666700  0.45833200  1
  Pt  Pt9  1  0.99999133  0.99998036  0.62452562  1
  Pt  Pt10  1  0.99998967  0.33334794  0.62445704  1
  Pt  Pt11  1  0.99999198  0.66661337  0.62445709  1
  Pt  Pt12  1  0.33335993  0.99997796  0.62445667  1
  Pt  Pt13  1  0.33306768  0.33305180  0.62598050  1
  Pt  Pt14  1  0.33307181  0.66689494  0.62598288  1
  Pt  Pt15  1  0.66662535  0.99998026  0.62445650  1
  Pt  Pt16  1  0.66690994  0.33305482  0.62598111  1
  Pt  Pt17  1  0.66691190  0.66689805  0.62598248  1
  Pt  Pt18  1  0.16666400  0.16665900  0.54151900  1
  Pt  Pt19  1  0.16666400  0.49999200  0.54151900  1
  Pt  Pt20  1  0.16666400  0.83332400  0.54151900  1
  Pt  Pt21  1  0.49999800  0.16665900  0.54151800  1
  Pt  Pt22  1  0.49999800  0.49999200  0.54151800  1
  Pt  Pt23  1  0.49999800  0.83332400  0.54151800  1
  Pt  Pt24  1  0.83333000  0.16665900  0.54151800  1
  Pt  Pt25  1  0.83332900  0.49999200  0.54151800  1
  Pt  Pt26  1  0.83333000  0.83332400  0.54151800  1
  H  H27  1  0.50000250  0.50002766  0.65306297  1
