# generated using pymatgen
data_HAu27CO
_symmetry_space_group_name_H-M   'P 1'
_cell_length_a   8.57606266
_cell_length_b   8.57606266
_cell_length_c   23.65109797
_cell_angle_alpha   88.12641697
_cell_angle_beta   88.12641697
_cell_angle_gamma   63.40130658
_symmetry_Int_Tables_number   1
_chemical_formula_structural   HAu27CO
_chemical_formula_sum   'H1 Au27 C1 O1'
_cell_volume   1554.26011481
_cell_formula_units_Z   1
loop_
 _symmetry_equiv_pos_site_id
 _symmetry_equiv_pos_as_xyz
  1  'x, y, z'
loop_
 _atom_site_type_symbol
 _atom_site_label
 _atom_site_symmetry_multiplicity
 _atom_site_fract_x
 _atom_site_fract_y
 _atom_site_fract_z
 _atom_site_occupancy
  Au  Au0  1  0.20426096  0.20436382  0.60593447  1
  Au  Au1  1  0.20499094  0.53761632  0.60553437  1
  Au  Au2  1  0.19869862  0.87426886  0.60548664  1
  Au  Au3  1  0.53766259  0.20416456  0.60553304  1
  Au  Au4  1  0.54037099  0.53946026  0.61075984  1
  Au  Au5  1  0.53184546  0.87943394  0.60308337  1
  Au  Au6  1  0.87424031  0.19932701  0.60508671  1
  Au  Au7  1  0.88098623  0.53317837  0.60177597  1
  Au  Au8  1  0.86809596  0.86951725  0.60488111  1
  Au  Au9  1  0.00046025  0.33209898  0.50170051  1
  Au  Au10  1  0.00353010  0.66769360  0.50170613  1
  Au  Au11  1  0.00043905  0.00004022  0.50207300  1
  Au  Au12  1  0.33326695  0.33324088  0.50297012  1
  Au  Au13  1  0.33948307  0.66336036  0.50492883  1
  Au  Au14  1  0.33247203  0.00036220  0.50188353  1
  Au  Au15  1  0.66315165  0.33945746  0.50474323  1
  Au  Au16  1  0.66833847  0.66894143  0.50287531  1
  Au  Au17  1  0.66735010  0.00333597  0.50191572  1
  Au  Au18  1  0.13333300  0.13333300  0.40000000  1
  Au  Au19  1  0.13333300  0.46666600  0.40000000  1
  Au  Au20  1  0.13333300  0.80000000  0.40000000  1
  Au  Au21  1  0.46666600  0.13333300  0.40000000  1
  Au  Au22  1  0.46666700  0.46666700  0.40000000  1
  Au  Au23  1  0.46666700  0.80000000  0.40000000  1
  Au  Au24  1  0.80000000  0.13333300  0.40000000  1
  Au  Au25  1  0.80000000  0.46666700  0.40000000  1
  Au  Au26  1  0.80000000  0.80000000  0.40000000  1
  C  C27  1  0.56048596  0.54540479  0.69778845  1
  H  H28  1  0.47348955  0.50111590  0.72177764  1
  O  O29  1  0.65595414  0.59154587  0.72047297  1
