# generated using pymatgen
data_HPt27
_symmetry_space_group_name_H-M   'P 1'
_cell_length_a   8.30585400
_cell_length_b   8.30548202
_cell_length_c   23.49208800
_cell_angle_alpha   89.99751652
_cell_angle_beta   89.99900665
_cell_angle_gamma   89.99635752
_symmetry_Int_Tables_number   1
_chemical_formula_structural   HPt27
_chemical_formula_sum   'H1 Pt27'
_cell_volume   1620.58103859
_cell_formula_units_Z   1
loop_
 _symmetry_equiv_pos_site_id
 _symmetry_equiv_pos_as_xyz
  1  'x, y, z'
loop_
 _atom_site_type_symbol
 _atom_site_label
 _atom_site_symmetry_multiplicity
 _atom_site_fract_x
 _atom_site_fract_y
 _atom_site_fract_z
 _atom_site_occupancy
  Pt  Pt0  1  0.00000000  0.00000000  0.45833200  1
  Pt  Pt1  1  0.00000000  0.33333400  0.45833200  1
  Pt  Pt2  1  0.00000000  0.66666700  0.45833200  1
  Pt  Pt3  1  0.33333400  0.00000000  0.45833200  1
  Pt  Pt4  1  0.33333400  0.33333400  0.45833200  1
  Pt  Pt5  1  0.33333400  0.66666700  0.45833200  1
  Pt  Pt6  1  0.66666700  0.00000000  0.45833200  1
  Pt  Pt7  1  0.66666700  0.33333400  0.45833200  1
  Pt  Pt8  1  0.66666700  0.66666700  0.45833200  1
  Pt  Pt9  1  0.99998951  0.99997905  0.62523540  1
  Pt  Pt10  1  0.99998585  0.33339204  0.62511511  1
  Pt  Pt11  1  0.99998847  0.66656348  0.62511701  1
  Pt  Pt12  1  0.33340264  0.99996767  0.62511737  1
  Pt  Pt13  1  0.33295799  0.33291747  0.62643936  1
  Pt  Pt14  1  0.33297395  0.66693390  0.62646846  1
  Pt  Pt15  1  0.66657676  0.99997040  0.62511809  1
  Pt  Pt16  1  0.66698537  0.33292457  0.62644932  1
  Pt  Pt17  1  0.66697421  0.66693196  0.62647729  1
  Pt  Pt18  1  0.16666400  0.16665800  0.54181500  1
  Pt  Pt19  1  0.16666400  0.49999400  0.54181600  1
  Pt  Pt20  1  0.16666400  0.83332500  0.54181600  1
  Pt  Pt21  1  0.49999800  0.16665800  0.54181600  1
  Pt  Pt22  1  0.49999700  0.49999400  0.54181600  1
  Pt  Pt23  1  0.49999700  0.83332500  0.54181700  1
  Pt  Pt24  1  0.83333100  0.16665800  0.54181500  1
  Pt  Pt25  1  0.83333100  0.49999400  0.54181600  1
  Pt  Pt26  1  0.83333100  0.83332500  0.54181600  1
  H  H27  1  0.50020353  0.50064417  0.65223657  1
