# generated using pymatgen
data_HAu27
_symmetry_space_group_name_H-M   'P 1'
_cell_length_a   8.57606266
_cell_length_b   8.57606266
_cell_length_c   23.65109797
_cell_angle_alpha   88.12641697
_cell_angle_beta   88.12641697
_cell_angle_gamma   63.40130658
_symmetry_Int_Tables_number   1
_chemical_formula_structural   HAu27
_chemical_formula_sum   'H1 Au27'
_cell_volume   1554.26011481
_cell_formula_units_Z   1
loop_
 _symmetry_equiv_pos_site_id
 _symmetry_equiv_pos_as_xyz
  1  'x, y, z'
loop_
 _atom_site_type_symbol
 _atom_site_label
 _atom_site_symmetry_multiplicity
 _atom_site_fract_x
 _atom_site_fract_y
 _atom_site_fract_z
 _atom_site_occupancy
  Au  Au0  1  0.20396718  0.20396720  0.60597595  1
  Au  Au1  1  0.20734171  0.53582738  0.60530467  1
  Au  Au2  1  0.19779435  0.87264504  0.60594454  1
  Au  Au3  1  0.53582739  0.20734170  0.60530468  1
  Au  Au4  1  0.53610551  0.53610560  0.60943495  1
  Au  Au5  1  0.52780946  0.88181080  0.61002249  1
  Au  Au6  1  0.87264502  0.19779443  0.60594453  1
  Au  Au7  1  0.88181078  0.52780946  0.61002248  1
  Au  Au8  1  0.86883309  0.86883306  0.60600535  1
  Au  Au9  1  0.99866973  0.33633895  0.50388023  1
  Au  Au10  1  0.00078783  0.66832071  0.50353478  1
  Au  Au11  1  0.00165967  0.00165960  0.50177331  1
  Au  Au12  1  0.33380865  0.33380868  0.50190168  1
  Au  Au13  1  0.33725971  0.66608765  0.50395814  1
  Au  Au14  1  0.33633895  0.99866976  0.50388024  1
  Au  Au15  1  0.66608770  0.33725973  0.50395813  1
  Au  Au16  1  0.66892704  0.66892696  0.50343767  1
  Au  Au17  1  0.66832078  0.00078780  0.50353479  1
  Au  Au18  1  0.13333300  0.13333300  0.40000000  1
  Au  Au19  1  0.13333300  0.46666600  0.40000000  1
  Au  Au20  1  0.13333300  0.80000000  0.40000000  1
  Au  Au21  1  0.46666600  0.13333300  0.40000000  1
  Au  Au22  1  0.46666700  0.46666700  0.40000000  1
  Au  Au23  1  0.46666700  0.80000000  0.40000000  1
  Au  Au24  1  0.80000000  0.13333300  0.40000000  1
  Au  Au25  1  0.80000000  0.46666700  0.40000000  1
  Au  Au26  1  0.80000000  0.80000000  0.40000000  1
  H  H27  1  0.65283783  0.65283787  0.63985136  1
