# generated using pymatgen
data_HAu27N2
_symmetry_space_group_name_H-M   'P 1'
_cell_length_a   8.57606266
_cell_length_b   8.57606266
_cell_length_c   23.65109797
_cell_angle_alpha   88.12641697
_cell_angle_beta   88.12641697
_cell_angle_gamma   63.40130658
_symmetry_Int_Tables_number   1
_chemical_formula_structural   HAu27N2
_chemical_formula_sum   'H1 Au27 N2'
_cell_volume   1554.26011481
_cell_formula_units_Z   1
loop_
 _symmetry_equiv_pos_site_id
 _symmetry_equiv_pos_as_xyz
  1  'x, y, z'
loop_
 _atom_site_type_symbol
 _atom_site_label
 _atom_site_symmetry_multiplicity
 _atom_site_fract_x
 _atom_site_fract_y
 _atom_site_fract_z
 _atom_site_occupancy
  Au  Au0  1  0.20596774  0.20462480  0.60640886  1
  Au  Au1  1  0.20353634  0.53862537  0.60424819  1
  Au  Au2  1  0.20356439  0.87278943  0.60555861  1
  Au  Au3  1  0.53958062  0.20380866  0.60552515  1
  Au  Au4  1  0.53899821  0.53819406  0.60496028  1
  Au  Au5  1  0.53763213  0.87233569  0.60598672  1
  Au  Au6  1  0.87359354  0.20307163  0.60609211  1
  Au  Au7  1  0.87306430  0.53691081  0.60626723  1
  Au  Au8  1  0.87129686  0.87061851  0.60625795  1
  Au  Au9  1  0.00213350  0.33489509  0.50303512  1
  Au  Au10  1  0.00052242  0.66927334  0.50232143  1
  Au  Au11  1  0.00123258  0.00192875  0.50265906  1
  Au  Au12  1  0.33585065  0.33398153  0.50269927  1
  Au  Au13  1  0.33480994  0.66812624  0.50283560  1
  Au  Au14  1  0.33479781  0.00141126  0.50292999  1
  Au  Au15  1  0.66903949  0.33422272  0.50305710  1
  Au  Au16  1  0.66840454  0.66772511  0.50321085  1
  Au  Au17  1  0.66854962  0.00080552  0.50278423  1
  Au  Au18  1  0.13333300  0.13333300  0.40000000  1
  Au  Au19  1  0.13333300  0.46666600  0.40000000  1
  Au  Au20  1  0.13333300  0.80000000  0.40000000  1
  Au  Au21  1  0.46666600  0.13333300  0.40000000  1
  Au  Au22  1  0.46666700  0.46666700  0.40000000  1
  Au  Au23  1  0.46666700  0.80000000  0.40000000  1
  Au  Au24  1  0.80000000  0.13333300  0.40000000  1
  Au  Au25  1  0.80000000  0.46666700  0.40000000  1
  Au  Au26  1  0.80000000  0.80000000  0.40000000  1
  N  N27  1  0.45832920  0.52757467  0.71875069  1
  N  N28  1  0.54614356  0.52502460  0.75267463  1
  H  H29  1  0.64221605  0.52293424  0.78124314  1
