# generated using pymatgen
data_Ag27HN2
_symmetry_space_group_name_H-M   'P 1'
_cell_length_a   8.60496519
_cell_length_b   8.60496881
_cell_length_c   23.47925300
_cell_angle_alpha   90.00483404
_cell_angle_beta   93.49762144
_cell_angle_gamma   119.99565775
_symmetry_Int_Tables_number   1
_chemical_formula_structural   Ag27HN2
_chemical_formula_sum   'Ag27 H1 N2'
_cell_volume   1501.93330901
_cell_formula_units_Z   1
loop_
 _symmetry_equiv_pos_site_id
 _symmetry_equiv_pos_as_xyz
  1  'x, y, z'
loop_
 _atom_site_type_symbol
 _atom_site_label
 _atom_site_symmetry_multiplicity
 _atom_site_fract_x
 _atom_site_fract_y
 _atom_site_fract_z
 _atom_site_occupancy
  Ag  Ag0  1  0.20000000  0.26666700  0.40000000  1
  Ag  Ag1  1  0.20000000  0.60000000  0.40000000  1
  Ag  Ag2  1  0.20000000  0.93333300  0.40000000  1
  Ag  Ag3  1  0.53333300  0.26666700  0.40000000  1
  Ag  Ag4  1  0.53333300  0.60000000  0.40000000  1
  Ag  Ag5  1  0.53333300  0.93333300  0.40000000  1
  Ag  Ag6  1  0.86666700  0.26666700  0.40000000  1
  Ag  Ag7  1  0.86666700  0.60000000  0.40000000  1
  Ag  Ag8  1  0.86666700  0.93333300  0.40000000  1
  Ag  Ag9  1  0.33393228  0.16719569  0.50172557  1
  Ag  Ag10  1  0.33411263  0.49995507  0.50164534  1
  Ag  Ag11  1  0.33320471  0.83321022  0.50119186  1
  Ag  Ag12  1  0.66751203  0.16691552  0.50179943  1
  Ag  Ag13  1  0.66626261  0.49985001  0.50192663  1
  Ag  Ag14  1  0.66729608  0.83393553  0.50175050  1
  Ag  Ag15  1  0.00000007  0.16689670  0.50176048  1
  Ag  Ag16  1  0.00052573  0.50063568  0.50137977  1
  Ag  Ag17  1  0.00035197  0.83311679  0.50117105  1
  Ag  Ag18  1  0.13157946  0.06420301  0.60251717  1
  Ag  Ag19  1  0.13184648  0.40027971  0.60285605  1
  Ag  Ag20  1  0.13415309  0.73361919  0.60367653  1
  Ag  Ag21  1  0.46707050  0.06475734  0.60261754  1
  Ag  Ag22  1  0.46607507  0.39995298  0.60163861  1
  Ag  Ag23  1  0.46772266  0.73584128  0.60265518  1
  Ag  Ag24  1  0.80110601  0.06722806  0.60434659  1
  Ag  Ag25  1  0.80207615  0.40024750  0.60293361  1
  Ag  Ag26  1  0.80208720  0.73536482  0.60274618  1
  N  N27  1  0.47925777  0.40340097  0.69758900  1
  N  N28  1  0.46871228  0.40610840  0.74741142  1
  H  H29  1  0.57167933  0.40987335  0.77551926  1
