# generated using pymatgen
data_HRh27O
_symmetry_space_group_name_H-M   'P 1'
_cell_length_a   8.03675400
_cell_length_b   8.03670000
_cell_length_c   22.73128200
_cell_angle_alpha   89.99972196
_cell_angle_beta   89.99972196
_cell_angle_gamma   89.99991445
_symmetry_Int_Tables_number   1
_chemical_formula_structural   HRh27O
_chemical_formula_sum   'H1 Rh27 O1'
_cell_volume   1468.19033829
_cell_formula_units_Z   1
loop_
 _symmetry_equiv_pos_site_id
 _symmetry_equiv_pos_as_xyz
  1  'x, y, z'
loop_
 _atom_site_type_symbol
 _atom_site_label
 _atom_site_symmetry_multiplicity
 _atom_site_fract_x
 _atom_site_fract_y
 _atom_site_fract_z
 _atom_site_occupancy
  Rh  Rh0  1  0.99999700  0.99999700  0.45626700  1
  Rh  Rh1  1  0.99999700  0.33332500  0.45626400  1
  Rh  Rh2  1  0.99999700  0.66666900  0.45626400  1
  Rh  Rh3  1  0.33332500  0.99999600  0.45626400  1
  Rh  Rh4  1  0.33332500  0.33332500  0.45626100  1
  Rh  Rh5  1  0.33332500  0.66666800  0.45626100  1
  Rh  Rh6  1  0.66666900  0.99999700  0.45626400  1
  Rh  Rh7  1  0.66666800  0.33332500  0.45626100  1
  Rh  Rh8  1  0.66666800  0.66666800  0.45626100  1
  Rh  Rh9  1  0.16666700  0.16666700  0.37500000  1
  Rh  Rh10  1  0.16666700  0.50000000  0.37500000  1
  Rh  Rh11  1  0.16666700  0.83333300  0.37500000  1
  Rh  Rh12  1  0.50000000  0.16666700  0.37500000  1
  Rh  Rh13  1  0.50000000  0.50000000  0.37500000  1
  Rh  Rh14  1  0.50000000  0.83333300  0.37500000  1
  Rh  Rh15  1  0.83333300  0.16666700  0.37500000  1
  Rh  Rh16  1  0.83333300  0.50000000  0.37500000  1
  Rh  Rh17  1  0.83333300  0.83333300  0.37500000  1
  Rh  Rh18  1  0.16610839  0.16632829  0.53751965  1
  Rh  Rh19  1  0.16612385  0.50030374  0.53769266  1
  Rh  Rh20  1  0.16606494  0.83395413  0.53750168  1
  Rh  Rh21  1  0.49947236  0.16625410  0.53806148  1
  Rh  Rh22  1  0.49867721  0.50156819  0.53705948  1
  Rh  Rh23  1  0.49972893  0.83371766  0.53768940  1
  Rh  Rh24  1  0.83391746  0.16606104  0.53732340  1
  Rh  Rh25  1  0.83380396  0.50040909  0.53795132  1
  Rh  Rh26  1  0.83367069  0.83382416  0.53751901  1
  O  O27  1  0.55204282  0.44244553  0.61721005  1
  H  H28  1  0.48735467  0.50830002  0.64628620  1
