# generated using pymatgen
data_Ag27N2
_symmetry_space_group_name_H-M   'P 1'
_cell_length_a   8.60496519
_cell_length_b   8.60496881
_cell_length_c   23.47925300
_cell_angle_alpha   90.00483404
_cell_angle_beta   93.49762144
_cell_angle_gamma   119.99565775
_symmetry_Int_Tables_number   1
_chemical_formula_structural   Ag27N2
_chemical_formula_sum   'Ag27 N2'
_cell_volume   1501.93330901
_cell_formula_units_Z   1
loop_
 _symmetry_equiv_pos_site_id
 _symmetry_equiv_pos_as_xyz
  1  'x, y, z'
loop_
 _atom_site_type_symbol
 _atom_site_label
 _atom_site_symmetry_multiplicity
 _atom_site_fract_x
 _atom_site_fract_y
 _atom_site_fract_z
 _atom_site_occupancy
  Ag  Ag0  1  0.20000000  0.26666700  0.40000000  1
  Ag  Ag1  1  0.20000000  0.60000000  0.40000000  1
  Ag  Ag2  1  0.20000000  0.93333300  0.40000000  1
  Ag  Ag3  1  0.53333300  0.26666700  0.40000000  1
  Ag  Ag4  1  0.53333300  0.60000000  0.40000000  1
  Ag  Ag5  1  0.53333300  0.93333300  0.40000000  1
  Ag  Ag6  1  0.86666700  0.26666700  0.40000000  1
  Ag  Ag7  1  0.86666700  0.60000000  0.40000000  1
  Ag  Ag8  1  0.86666700  0.93333300  0.40000000  1
  Ag  Ag9  1  0.33336162  0.16629992  0.50152278  1
  Ag  Ag10  1  0.33336174  0.50040416  0.50152446  1
  Ag  Ag11  1  0.33329236  0.83331435  0.50123184  1
  Ag  Ag12  1  0.66703334  0.16681216  0.50155624  1
  Ag  Ag13  1  0.66741008  0.50038054  0.50156303  1
  Ag  Ag14  1  0.66703756  0.83356220  0.50155486  1
  Ag  Ag15  1  0.00031713  0.16682712  0.50157210  1
  Ag  Ag16  1  0.00040447  0.50046126  0.50120942  1
  Ag  Ag17  1  0.00040942  0.83329253  0.50120683  1
  Ag  Ag18  1  0.13144220  0.06458248  0.60253926  1
  Ag  Ag19  1  0.13145665  0.40020288  0.60254869  1
  Ag  Ag20  1  0.13411725  0.73373766  0.60334038  1
  Ag  Ag21  1  0.46739217  0.06496559  0.60266195  1
  Ag  Ag22  1  0.46731788  0.40031793  0.59962685  1
  Ag  Ag23  1  0.46740870  0.73575233  0.60266538  1
  Ag  Ag24  1  0.80078526  0.06706428  0.60339596  1
  Ag  Ag25  1  0.80228557  0.40023044  0.60277838  1
  Ag  Ag26  1  0.80229788  0.73542687  0.60277419  1
  N  N27  1  0.47090114  0.40212900  0.70071296  1
  N  N28  1  0.48023501  0.40687589  0.74801393  1
