# generated using pymatgen
data_Te16Mo12H
_symmetry_space_group_name_H-M   'P 1'
_cell_length_a   7.04082001
_cell_length_b   7.04195269
_cell_length_c   29.08263700
_cell_angle_alpha   92.42233475
_cell_angle_beta   92.43396473
_cell_angle_gamma   92.45457226
_symmetry_Int_Tables_number   1
_chemical_formula_structural   Te16Mo12H
_chemical_formula_sum   'Te16 Mo12 H1'
_cell_volume   1437.92269216
_cell_formula_units_Z   1
loop_
 _symmetry_equiv_pos_site_id
 _symmetry_equiv_pos_as_xyz
  1  'x, y, z'
loop_
 _atom_site_type_symbol
 _atom_site_label
 _atom_site_symmetry_multiplicity
 _atom_site_fract_x
 _atom_site_fract_y
 _atom_site_fract_z
 _atom_site_occupancy
  Mo  Mo0  1  0.24303861  0.54779019  0.35211294  1
  Mo  Mo1  1  0.25167001  0.52740271  0.59633017  1
  Mo  Mo2  1  0.75795552  0.45783826  0.39021480  1
  Mo  Mo3  1  0.76585296  0.43807977  0.63477980  1
  Mo  Mo4  1  0.41789928  0.24483403  0.38161962  1
  Mo  Mo5  1  0.42848346  0.22513151  0.62537938  1
  Mo  Mo6  1  0.57496442  0.75972597  0.36137656  1
  Mo  Mo7  1  0.58995764  0.74115004  0.60552896  1
  Mo  Mo8  1  0.54335900  0.41937700  0.30833700  1
  Mo  Mo9  1  0.55354345  0.40435877  0.55056836  1
  Mo  Mo10  1  0.45580209  0.58004734  0.43512212  1
  Mo  Mo11  1  0.45756087  0.56600665  0.67600409  1
  Te  Te12  1  0.11552024  0.37665263  0.43195417  1
  Te  Te13  1  0.12590681  0.35477554  0.67651631  1
  Te  Te14  1  0.88219500  0.62512800  0.31051700  1
  Te  Te15  1  0.89349355  0.60626114  0.55492418  1
  Te  Te16  1  0.74986000  0.11788600  0.34077800  1
  Te  Te17  1  0.75752315  0.10255833  0.58199200  1
  Te  Te18  1  0.25119325  0.88361802  0.40418932  1
  Te  Te19  1  0.25816260  0.86572804  0.64913324  1
  Te  Te20  1  0.37496100  0.74994600  0.27852400  1
  Te  Te21  1  0.38485542  0.73614941  0.52353309  1
  Te  Te22  1  0.62710966  0.24569755  0.46261674  1
  Te  Te23  1  0.63720757  0.23415131  0.70679620  1
  Te  Te24  1  0.20510400  0.20534500  0.29972100  1
  Te  Te25  1  0.22261001  0.18611019  0.54278351  1
  Te  Te26  1  0.79297140  0.79299949  0.44332329  1
  Te  Te27  1  0.78962291  0.77559555  0.68994233  1
  H  H28  1  0.52144574  0.45507277  0.73251347  1
