# generated using pymatgen
data_Ag27HCO2
_symmetry_space_group_name_H-M   'P 1'
_cell_length_a   8.60496519
_cell_length_b   8.60496881
_cell_length_c   23.47925300
_cell_angle_alpha   90.00483404
_cell_angle_beta   93.49762144
_cell_angle_gamma   119.99565775
_symmetry_Int_Tables_number   1
_chemical_formula_structural   Ag27HCO2
_chemical_formula_sum   'Ag27 H1 C1 O2'
_cell_volume   1501.93330901
_cell_formula_units_Z   1
loop_
 _symmetry_equiv_pos_site_id
 _symmetry_equiv_pos_as_xyz
  1  'x, y, z'
loop_
 _atom_site_type_symbol
 _atom_site_label
 _atom_site_symmetry_multiplicity
 _atom_site_fract_x
 _atom_site_fract_y
 _atom_site_fract_z
 _atom_site_occupancy
  Ag  Ag0  1  0.20000000  0.26666700  0.40000000  1
  Ag  Ag1  1  0.20000000  0.60000000  0.40000000  1
  Ag  Ag2  1  0.20000000  0.93333300  0.40000000  1
  Ag  Ag3  1  0.53333300  0.26666700  0.40000000  1
  Ag  Ag4  1  0.53333300  0.60000000  0.40000000  1
  Ag  Ag5  1  0.53333300  0.93333300  0.40000000  1
  Ag  Ag6  1  0.86666700  0.26666700  0.40000000  1
  Ag  Ag7  1  0.86666700  0.60000000  0.40000000  1
  Ag  Ag8  1  0.86666700  0.93333300  0.40000000  1
  Ag  Ag9  1  0.33410883  0.16754767  0.50232152  1
  Ag  Ag10  1  0.33425774  0.49966442  0.50252918  1
  Ag  Ag11  1  0.33303840  0.83325021  0.50253930  1
  Ag  Ag12  1  0.66703503  0.16689266  0.50282220  1
  Ag  Ag13  1  0.66575506  0.49932809  0.50277418  1
  Ag  Ag14  1  0.66710863  0.83338344  0.50283507  1
  Ag  Ag15  1  0.00065801  0.16688311  0.50272664  1
  Ag  Ag16  1  0.00071749  0.50072053  0.50249064  1
  Ag  Ag17  1  0.00096930  0.83321128  0.50244888  1
  Ag  Ag18  1  0.13120615  0.06434414  0.60448663  1
  Ag  Ag19  1  0.13230128  0.39998294  0.60465274  1
  Ag  Ag20  1  0.13406464  0.73314905  0.60517289  1
  Ag  Ag21  1  0.46791768  0.06482505  0.60466427  1
  Ag  Ag22  1  0.46717020  0.39967289  0.60471511  1
  Ag  Ag23  1  0.46731454  0.73628282  0.60426899  1
  Ag  Ag24  1  0.80105646  0.06712661  0.60567321  1
  Ag  Ag25  1  0.80229462  0.40006506  0.60493173  1
  Ag  Ag26  1  0.80331175  0.73583690  0.60432605  1
  C  C27  1  0.47687719  0.41078903  0.69687079  1
  O  O28  1  0.54658063  0.54854654  0.72681982  1
  O  O29  1  0.39766654  0.24631146  0.72037447  1
  H  H30  1  0.40865892  0.26243241  0.76281417  1
