# generated using pymatgen
data_Pt27O
_symmetry_space_group_name_H-M   'P 1'
_cell_length_a   8.30585400
_cell_length_b   8.30548202
_cell_length_c   23.49208800
_cell_angle_alpha   89.99751652
_cell_angle_beta   89.99900665
_cell_angle_gamma   89.99635752
_symmetry_Int_Tables_number   1
_chemical_formula_structural   Pt27O
_chemical_formula_sum   'Pt27 O1'
_cell_volume   1620.58103859
_cell_formula_units_Z   1
loop_
 _symmetry_equiv_pos_site_id
 _symmetry_equiv_pos_as_xyz
  1  'x, y, z'
loop_
 _atom_site_type_symbol
 _atom_site_label
 _atom_site_symmetry_multiplicity
 _atom_site_fract_x
 _atom_site_fract_y
 _atom_site_fract_z
 _atom_site_occupancy
  Pt  Pt0  1  0.00000000  0.00000000  0.45833200  1
  Pt  Pt1  1  0.00000000  0.33333400  0.45833200  1
  Pt  Pt2  1  0.00000000  0.66666700  0.45833200  1
  Pt  Pt3  1  0.33333400  0.00000000  0.45833200  1
  Pt  Pt4  1  0.33333400  0.33333400  0.45833200  1
  Pt  Pt5  1  0.33333400  0.66666700  0.45833200  1
  Pt  Pt6  1  0.66666700  0.00000000  0.45833200  1
  Pt  Pt7  1  0.66666700  0.33333400  0.45833200  1
  Pt  Pt8  1  0.66666700  0.66666700  0.45833200  1
  Pt  Pt9  1  0.99914801  0.99913842  0.62466422  1
  Pt  Pt10  1  0.99727531  0.33332122  0.62338292  1
  Pt  Pt11  1  0.99914594  0.66749945  0.62466306  1
  Pt  Pt12  1  0.33333060  0.99726644  0.62338330  1
  Pt  Pt13  1  0.33332246  0.33331262  0.63102728  1
  Pt  Pt14  1  0.33332719  0.66936745  0.62338207  1
  Pt  Pt15  1  0.66750842  0.99913689  0.62466368  1
  Pt  Pt16  1  0.66937580  0.33331801  0.62338228  1
  Pt  Pt17  1  0.66750671  0.66749799  0.62466304  1
  Pt  Pt18  1  0.16666500  0.16666000  0.54141400  1
  Pt  Pt19  1  0.16666500  0.49999300  0.54141400  1
  Pt  Pt20  1  0.16666500  0.83332900  0.54141400  1
  Pt  Pt21  1  0.49999700  0.16666000  0.54141400  1
  Pt  Pt22  1  0.49999700  0.49999400  0.54141400  1
  Pt  Pt23  1  0.49999700  0.83332900  0.54141400  1
  Pt  Pt24  1  0.83333200  0.16666000  0.54141400  1
  Pt  Pt25  1  0.83333100  0.49999400  0.54141400  1
  Pt  Pt26  1  0.83333100  0.83332900  0.54141400  1
  O  O27  1  0.33333739  0.33332886  0.71013677  1
