# generated using pymatgen
data_HAu27CO
_symmetry_space_group_name_H-M   'P 1'
_cell_length_a   8.57606266
_cell_length_b   8.57606266
_cell_length_c   23.65109797
_cell_angle_alpha   88.12641697
_cell_angle_beta   88.12641697
_cell_angle_gamma   63.40130658
_symmetry_Int_Tables_number   1
_chemical_formula_structural   HAu27CO
_chemical_formula_sum   'H1 Au27 C1 O1'
_cell_volume   1554.26011481
_cell_formula_units_Z   1
loop_
 _symmetry_equiv_pos_site_id
 _symmetry_equiv_pos_as_xyz
  1  'x, y, z'
loop_
 _atom_site_type_symbol
 _atom_site_label
 _atom_site_symmetry_multiplicity
 _atom_site_fract_x
 _atom_site_fract_y
 _atom_site_fract_z
 _atom_site_occupancy
  Au  Au0  1  0.22056814  0.22586061  0.60516820  1
  Au  Au1  1  0.19970943  0.57217309  0.61120845  1
  Au  Au2  1  0.21077123  0.90092955  0.60524801  1
  Au  Au3  1  0.56250121  0.20053300  0.62390406  1
  Au  Au4  1  0.55977179  0.55802824  0.60908305  1
  Au  Au5  1  0.54920972  0.88858939  0.60624242  1
  Au  Au6  1  0.88906951  0.22064550  0.60586838  1
  Au  Au7  1  0.88389517  0.55615628  0.60586216  1
  Au  Au8  1  0.87941316  0.89221010  0.60596528  1
  Au  Au9  1  0.00966130  0.34402603  0.50334021  1
  Au  Au10  1  0.01528593  0.67321036  0.50478235  1
  Au  Au11  1  0.00453154  0.01048444  0.50245192  1
  Au  Au12  1  0.34463942  0.34492962  0.50479346  1
  Au  Au13  1  0.34498558  0.67716939  0.50452615  1
  Au  Au14  1  0.34094252  0.01210736  0.50281650  1
  Au  Au15  1  0.67431264  0.34687004  0.50461346  1
  Au  Au16  1  0.67532920  0.67895540  0.50364262  1
  Au  Au17  1  0.66758154  0.02028450  0.50540422  1
  Au  Au18  1  0.13333300  0.13333300  0.40000000  1
  Au  Au19  1  0.13333300  0.46666600  0.40000000  1
  Au  Au20  1  0.13333300  0.80000000  0.40000000  1
  Au  Au21  1  0.46666600  0.13333300  0.40000000  1
  Au  Au22  1  0.46666700  0.46666700  0.40000000  1
  Au  Au23  1  0.46666700  0.80000000  0.40000000  1
  Au  Au24  1  0.80000000  0.13333300  0.40000000  1
  Au  Au25  1  0.80000000  0.46666700  0.40000000  1
  Au  Au26  1  0.80000000  0.80000000  0.40000000  1
  C  C27  1  0.42285303  0.44635997  0.65950909  1
  H  H28  1  0.51025977  0.39046871  0.73628556  1
  O  O29  1  0.40552578  0.47179725  0.71550547  1
