# generated using pymatgen
data_Ag27HO
_symmetry_space_group_name_H-M   'P 1'
_cell_length_a   8.60496519
_cell_length_b   8.60496881
_cell_length_c   23.47925300
_cell_angle_alpha   90.00483404
_cell_angle_beta   93.49762144
_cell_angle_gamma   119.99565775
_symmetry_Int_Tables_number   1
_chemical_formula_structural   Ag27HO
_chemical_formula_sum   'Ag27 H1 O1'
_cell_volume   1501.93330901
_cell_formula_units_Z   1
loop_
 _symmetry_equiv_pos_site_id
 _symmetry_equiv_pos_as_xyz
  1  'x, y, z'
loop_
 _atom_site_type_symbol
 _atom_site_label
 _atom_site_symmetry_multiplicity
 _atom_site_fract_x
 _atom_site_fract_y
 _atom_site_fract_z
 _atom_site_occupancy
  Ag  Ag0  1  0.20000000  0.26666700  0.40000000  1
  Ag  Ag1  1  0.20000000  0.60000000  0.40000000  1
  Ag  Ag2  1  0.20000000  0.93333300  0.40000000  1
  Ag  Ag3  1  0.53333300  0.26666700  0.40000000  1
  Ag  Ag4  1  0.53333300  0.60000000  0.40000000  1
  Ag  Ag5  1  0.53333300  0.93333300  0.40000000  1
  Ag  Ag6  1  0.86666700  0.26666700  0.40000000  1
  Ag  Ag7  1  0.86666700  0.60000000  0.40000000  1
  Ag  Ag8  1  0.86666700  0.93333300  0.40000000  1
  Ag  Ag9  1  0.34199523  0.17120743  0.50107839  1
  Ag  Ag10  1  0.34199129  0.50414011  0.50107920  1
  Ag  Ag11  1  0.34141009  0.83739688  0.50098367  1
  Ag  Ag12  1  0.67566325  0.17151896  0.50089325  1
  Ag  Ag13  1  0.67471135  0.50402670  0.49958570  1
  Ag  Ag14  1  0.67566101  0.83751292  0.50089218  1
  Ag  Ag15  1  0.01036612  0.17185908  0.50177390  1
  Ag  Ag16  1  0.01164638  0.50276342  0.50139573  1
  Ag  Ag17  1  0.01163038  0.84220540  0.50139162  1
  Ag  Ag18  1  0.14195800  0.06024456  0.60381200  1
  Ag  Ag19  1  0.14197991  0.41506621  0.60382756  1
  Ag  Ag20  1  0.14863948  0.74099484  0.60215956  1
  Ag  Ag21  1  0.48156206  0.07378015  0.60137706  1
  Ag  Ag22  1  0.50387399  0.41863996  0.59952192  1
  Ag  Ag23  1  0.48154227  0.74117127  0.60137230  1
  Ag  Ag24  1  0.81383654  0.07361498  0.60143816  1
  Ag  Ag25  1  0.81761868  0.40790051  0.60138768  1
  Ag  Ag26  1  0.81761189  0.74308262  0.60138568  1
  O  O27  1  0.28898676  0.31113053  0.65741311  1
  H  H28  1  0.31401387  0.32363914  0.69928399  1
