# generated using pymatgen
data_Ag27HN2
_symmetry_space_group_name_H-M   'P 1'
_cell_length_a   8.60496519
_cell_length_b   8.60496881
_cell_length_c   23.47925300
_cell_angle_alpha   90.00483404
_cell_angle_beta   93.49762144
_cell_angle_gamma   119.99565775
_symmetry_Int_Tables_number   1
_chemical_formula_structural   Ag27HN2
_chemical_formula_sum   'Ag27 H1 N2'
_cell_volume   1501.93330901
_cell_formula_units_Z   1
loop_
 _symmetry_equiv_pos_site_id
 _symmetry_equiv_pos_as_xyz
  1  'x, y, z'
loop_
 _atom_site_type_symbol
 _atom_site_label
 _atom_site_symmetry_multiplicity
 _atom_site_fract_x
 _atom_site_fract_y
 _atom_site_fract_z
 _atom_site_occupancy
  Ag  Ag0  1  0.20000000  0.26666700  0.40000000  1
  Ag  Ag1  1  0.20000000  0.60000000  0.40000000  1
  Ag  Ag2  1  0.20000000  0.93333300  0.40000000  1
  Ag  Ag3  1  0.53333300  0.26666700  0.40000000  1
  Ag  Ag4  1  0.53333300  0.60000000  0.40000000  1
  Ag  Ag5  1  0.53333300  0.93333300  0.40000000  1
  Ag  Ag6  1  0.86666700  0.26666700  0.40000000  1
  Ag  Ag7  1  0.86666700  0.60000000  0.40000000  1
  Ag  Ag8  1  0.86666700  0.93333300  0.40000000  1
  Ag  Ag9  1  0.33380290  0.16670094  0.50250019  1
  Ag  Ag10  1  0.33398167  0.50025918  0.50249337  1
  Ag  Ag11  1  0.33342071  0.83337555  0.50214616  1
  Ag  Ag12  1  0.66749829  0.16700867  0.50267381  1
  Ag  Ag13  1  0.66719815  0.50031225  0.50250307  1
  Ag  Ag14  1  0.66736150  0.83378441  0.50259434  1
  Ag  Ag15  1  0.00032221  0.16694751  0.50258964  1
  Ag  Ag16  1  0.00066046  0.50067693  0.50221823  1
  Ag  Ag17  1  0.00056401  0.83330552  0.50212695  1
  Ag  Ag18  1  0.13197206  0.06459324  0.60408266  1
  Ag  Ag19  1  0.13227293  0.40044846  0.60421126  1
  Ag  Ag20  1  0.13443117  0.73380415  0.60513828  1
  Ag  Ag21  1  0.46740665  0.06470573  0.60433123  1
  Ag  Ag22  1  0.46785987  0.40046524  0.60217432  1
  Ag  Ag23  1  0.46798186  0.73604816  0.60419986  1
  Ag  Ag24  1  0.80123455  0.06733934  0.60539780  1
  Ag  Ag25  1  0.80314516  0.40047810  0.60459490  1
  Ag  Ag26  1  0.80284037  0.73602719  0.60446936  1
  N  N27  1  0.47672548  0.40207928  0.69797842  1
  N  N28  1  0.46849426  0.40670260  0.74804354  1
  H  H29  1  0.57239624  0.41008404  0.77555395  1
