# generated using pymatgen
data_Au27CO
_symmetry_space_group_name_H-M   'P 1'
_cell_length_a   8.57606266
_cell_length_b   8.57606266
_cell_length_c   23.65109797
_cell_angle_alpha   88.12641697
_cell_angle_beta   88.12641697
_cell_angle_gamma   63.40130658
_symmetry_Int_Tables_number   1
_chemical_formula_structural   Au27CO
_chemical_formula_sum   'Au27 C1 O1'
_cell_volume   1554.26011481
_cell_formula_units_Z   1
loop_
 _symmetry_equiv_pos_site_id
 _symmetry_equiv_pos_as_xyz
  1  'x, y, z'
loop_
 _atom_site_type_symbol
 _atom_site_label
 _atom_site_symmetry_multiplicity
 _atom_site_fract_x
 _atom_site_fract_y
 _atom_site_fract_z
 _atom_site_occupancy
  Au  Au0  1  0.20346095  0.20424002  0.60566056  1
  Au  Au1  1  0.19632328  0.53921871  0.60385654  1
  Au  Au2  1  0.19559893  0.87637002  0.60439913  1
  Au  Au3  1  0.53836443  0.19746266  0.60377777  1
  Au  Au4  1  0.53435788  0.53621067  0.60640806  1
  Au  Au5  1  0.53143425  0.87556233  0.60389535  1
  Au  Au6  1  0.87566803  0.19626743  0.60435347  1
  Au  Au7  1  0.87447720  0.53219626  0.60388493  1
  Au  Au8  1  0.86709978  0.86786635  0.60489253  1
  Au  Au9  1  0.00040220  0.33314784  0.50190967  1
  Au  Au10  1  0.00005347  0.66869642  0.50116824  1
  Au  Au11  1  0.00013463  0.00042036  0.50112513  1
  Au  Au12  1  0.33277854  0.33330815  0.50225549  1
  Au  Au13  1  0.33665095  0.66473181  0.50415801  1
  Au  Au14  1  0.33276912  0.00085449  0.50190179  1
  Au  Au15  1  0.66433970  0.33696937  0.50416481  1
  Au  Au16  1  0.66646075  0.66686247  0.50371226  1
  Au  Au17  1  0.66835366  0.00041697  0.50116593  1
  Au  Au18  1  0.13333300  0.13333300  0.40000000  1
  Au  Au19  1  0.13333300  0.46666600  0.40000000  1
  Au  Au20  1  0.13333300  0.80000000  0.40000000  1
  Au  Au21  1  0.46666600  0.13333300  0.40000000  1
  Au  Au22  1  0.46666700  0.46666700  0.40000000  1
  Au  Au23  1  0.46666700  0.80000000  0.40000000  1
  Au  Au24  1  0.80000000  0.13333300  0.40000000  1
  Au  Au25  1  0.80000000  0.46666700  0.40000000  1
  Au  Au26  1  0.80000000  0.80000000  0.40000000  1
  O  O27  1  0.51904594  0.51476891  0.73971128  1
  C  C28  1  0.52782104  0.52601611  0.69148086  1
