# generated using pymatgen
data_HPt27O2
_symmetry_space_group_name_H-M   'P 1'
_cell_length_a   8.30585400
_cell_length_b   8.30548202
_cell_length_c   23.49208800
_cell_angle_alpha   89.99751652
_cell_angle_beta   89.99900665
_cell_angle_gamma   89.99635752
_symmetry_Int_Tables_number   1
_chemical_formula_structural   HPt27O2
_chemical_formula_sum   'H1 Pt27 O2'
_cell_volume   1620.58103859
_cell_formula_units_Z   1
loop_
 _symmetry_equiv_pos_site_id
 _symmetry_equiv_pos_as_xyz
  1  'x, y, z'
loop_
 _atom_site_type_symbol
 _atom_site_label
 _atom_site_symmetry_multiplicity
 _atom_site_fract_x
 _atom_site_fract_y
 _atom_site_fract_z
 _atom_site_occupancy
  Pt  Pt0  1  0.00000000  0.00000000  0.45833200  1
  Pt  Pt1  1  0.00000000  0.33333400  0.45833200  1
  Pt  Pt2  1  0.00000000  0.66666700  0.45833200  1
  Pt  Pt3  1  0.33333400  0.00000000  0.45833200  1
  Pt  Pt4  1  0.33333400  0.33333400  0.45833200  1
  Pt  Pt5  1  0.33333400  0.66666700  0.45833200  1
  Pt  Pt6  1  0.66666700  0.00000000  0.45833200  1
  Pt  Pt7  1  0.66666700  0.33333400  0.45833200  1
  Pt  Pt8  1  0.66666700  0.66666700  0.45833200  1
  Pt  Pt9  1  0.99892462  0.99973066  0.62355790  1
  Pt  Pt10  1  0.99939443  0.33375227  0.62253275  1
  Pt  Pt11  1  0.99875381  0.66761341  0.62358759  1
  Pt  Pt12  1  0.33272155  0.00003329  0.62227044  1
  Pt  Pt13  1  0.33143260  0.33766627  0.62974365  1
  Pt  Pt14  1  0.33266573  0.66784955  0.62254743  1
  Pt  Pt15  1  0.66674905  0.99967480  0.62338644  1
  Pt  Pt16  1  0.66802226  0.33365440  0.62234601  1
  Pt  Pt17  1  0.66670412  0.66745733  0.62344804  1
  Pt  Pt18  1  0.16666200  0.16666200  0.54085300  1
  Pt  Pt19  1  0.16666300  0.49999200  0.54085300  1
  Pt  Pt20  1  0.16666200  0.83332800  0.54085300  1
  Pt  Pt21  1  0.49999300  0.16666200  0.54085300  1
  Pt  Pt22  1  0.49999300  0.49999200  0.54085300  1
  Pt  Pt23  1  0.49999300  0.83332800  0.54085300  1
  Pt  Pt24  1  0.83333600  0.16666200  0.54085300  1
  Pt  Pt25  1  0.83333600  0.49999200  0.54085300  1
  Pt  Pt26  1  0.83333600  0.83332800  0.54085300  1
  O  O27  1  0.36780343  0.30494347  0.71142615  1
  O  O28  1  0.27534238  0.41399879  0.74397532  1
  H  H29  1  0.35955962  0.47907227  0.76390375  1
