# generated using pymatgen
data_Te16Mo12H
_symmetry_space_group_name_H-M   'P 1'
_cell_length_a   7.04082001
_cell_length_b   7.04195269
_cell_length_c   29.08263700
_cell_angle_alpha   92.42233475
_cell_angle_beta   92.43396473
_cell_angle_gamma   92.45457226
_symmetry_Int_Tables_number   1
_chemical_formula_structural   Te16Mo12H
_chemical_formula_sum   'Te16 Mo12 H1'
_cell_volume   1437.92269216
_cell_formula_units_Z   1
loop_
 _symmetry_equiv_pos_site_id
 _symmetry_equiv_pos_as_xyz
  1  'x, y, z'
loop_
 _atom_site_type_symbol
 _atom_site_label
 _atom_site_symmetry_multiplicity
 _atom_site_fract_x
 _atom_site_fract_y
 _atom_site_fract_z
 _atom_site_occupancy
  Mo  Mo0  1  0.24268281  0.54763863  0.35207619  1
  Mo  Mo1  1  0.25295850  0.52237174  0.59688228  1
  Mo  Mo2  1  0.75875922  0.45835887  0.39022088  1
  Mo  Mo3  1  0.76979621  0.43356649  0.63472797  1
  Mo  Mo4  1  0.41819432  0.24445684  0.38157901  1
  Mo  Mo5  1  0.43155657  0.22096701  0.62564682  1
  Mo  Mo6  1  0.57440496  0.75996328  0.36141133  1
  Mo  Mo7  1  0.59210308  0.73685911  0.60582049  1
  Mo  Mo8  1  0.54335900  0.41937700  0.30833700  1
  Mo  Mo9  1  0.55486705  0.40051136  0.55082595  1
  Mo  Mo10  1  0.45586828  0.57975627  0.43514550  1
  Mo  Mo11  1  0.46208737  0.56144071  0.67638379  1
  Te  Te12  1  0.11579245  0.37597060  0.43201175  1
  Te  Te13  1  0.12970942  0.35095675  0.67712681  1
  Te  Te14  1  0.88219500  0.62512800  0.31051700  1
  Te  Te15  1  0.89582598  0.60253666  0.55513484  1
  Te  Te16  1  0.74986000  0.11788600  0.34077800  1
  Te  Te17  1  0.75908198  0.09788927  0.58192410  1
  Te  Te18  1  0.25129561  0.88338362  0.40439990  1
  Te  Te19  1  0.26163055  0.86126003  0.64994905  1
  Te  Te20  1  0.37496100  0.74994600  0.27852400  1
  Te  Te21  1  0.38592915  0.73251003  0.52405200  1
  Te  Te22  1  0.62788022  0.24560713  0.46254830  1
  Te  Te23  1  0.64226388  0.22893561  0.70683303  1
  Te  Te24  1  0.20510400  0.20534500  0.29972100  1
  Te  Te25  1  0.22329087  0.18294738  0.54316890  1
  Te  Te26  1  0.79266395  0.79315065  0.44347661  1
  Te  Te27  1  0.79493975  0.76942294  0.68977719  1
  H  H28  1  0.53136817  0.44692255  0.73262142  1
