# generated using pymatgen
data_HAu27O2
_symmetry_space_group_name_H-M   'P 1'
_cell_length_a   8.57606266
_cell_length_b   8.57606266
_cell_length_c   23.65109797
_cell_angle_alpha   88.12641697
_cell_angle_beta   88.12641697
_cell_angle_gamma   63.40130658
_symmetry_Int_Tables_number   1
_chemical_formula_structural   HAu27O2
_chemical_formula_sum   'H1 Au27 O2'
_cell_volume   1554.26011481
_cell_formula_units_Z   1
loop_
 _symmetry_equiv_pos_site_id
 _symmetry_equiv_pos_as_xyz
  1  'x, y, z'
loop_
 _atom_site_type_symbol
 _atom_site_label
 _atom_site_symmetry_multiplicity
 _atom_site_fract_x
 _atom_site_fract_y
 _atom_site_fract_z
 _atom_site_occupancy
  Au  Au0  1  0.20426670  0.20605457  0.60680630  1
  Au  Au1  1  0.20211771  0.53979878  0.60568823  1
  Au  Au2  1  0.20043916  0.87525640  0.60643722  1
  Au  Au3  1  0.53857867  0.20240319  0.60499472  1
  Au  Au4  1  0.53901147  0.53794481  0.61045761  1
  Au  Au5  1  0.53373291  0.87588789  0.60716229  1
  Au  Au6  1  0.87470720  0.20053710  0.60541092  1
  Au  Au7  1  0.87485846  0.53553940  0.60627105  1
  Au  Au8  1  0.86922402  0.87041989  0.60616636  1
  Au  Au9  1  0.99986323  0.33486081  0.50307025  1
  Au  Au10  1  0.00086680  0.66900880  0.50261860  1
  Au  Au11  1  0.00155638  0.00066707  0.50228938  1
  Au  Au12  1  0.33292241  0.33421449  0.50341866  1
  Au  Au13  1  0.33763810  0.66504662  0.50588444  1
  Au  Au14  1  0.33440315  0.00068326  0.50328322  1
  Au  Au15  1  0.66442924  0.33793708  0.50507997  1
  Au  Au16  1  0.66637775  0.66766841  0.50573600  1
  Au  Au17  1  0.66862142  0.00111237  0.50251247  1
  Au  Au18  1  0.13333300  0.13333300  0.40000000  1
  Au  Au19  1  0.13333300  0.46666600  0.40000000  1
  Au  Au20  1  0.13333300  0.80000000  0.40000000  1
  Au  Au21  1  0.46666600  0.13333300  0.40000000  1
  Au  Au22  1  0.46666700  0.46666700  0.40000000  1
  Au  Au23  1  0.46666700  0.80000000  0.40000000  1
  Au  Au24  1  0.80000000  0.13333300  0.40000000  1
  Au  Au25  1  0.80000000  0.46666700  0.40000000  1
  Au  Au26  1  0.80000000  0.80000000  0.40000000  1
  O  O27  1  0.52154971  0.48094440  0.70380600  1
  O  O28  1  0.53251224  0.61001876  0.74118449  1
  H  H29  1  0.42604663  0.71707823  0.73152347  1
