# generated using pymatgen
data_HAu27CO
_symmetry_space_group_name_H-M   'P 1'
_cell_length_a   8.57606266
_cell_length_b   8.57606266
_cell_length_c   23.65109797
_cell_angle_alpha   88.12641697
_cell_angle_beta   88.12641697
_cell_angle_gamma   63.40130658
_symmetry_Int_Tables_number   1
_chemical_formula_structural   HAu27CO
_chemical_formula_sum   'H1 Au27 C1 O1'
_cell_volume   1554.26011481
_cell_formula_units_Z   1
loop_
 _symmetry_equiv_pos_site_id
 _symmetry_equiv_pos_as_xyz
  1  'x, y, z'
loop_
 _atom_site_type_symbol
 _atom_site_label
 _atom_site_symmetry_multiplicity
 _atom_site_fract_x
 _atom_site_fract_y
 _atom_site_fract_z
 _atom_site_occupancy
  Au  Au0  1  0.20628559  0.20608463  0.60816521  1
  Au  Au1  1  0.20708914  0.53980512  0.60713549  1
  Au  Au2  1  0.19936716  0.87648119  0.60719340  1
  Au  Au3  1  0.54004708  0.20580506  0.60732249  1
  Au  Au4  1  0.54348282  0.54162583  0.61198575  1
  Au  Au5  1  0.53146680  0.88303084  0.60563057  1
  Au  Au6  1  0.87661706  0.19995206  0.60667181  1
  Au  Au7  1  0.88503323  0.53258541  0.60515676  1
  Au  Au8  1  0.86945198  0.87052934  0.60630784  1
  Au  Au9  1  0.00146768  0.33318776  0.50306342  1
  Au  Au10  1  0.00383617  0.66852517  0.50270668  1
  Au  Au11  1  0.00107224  0.00076769  0.50264530  1
  Au  Au12  1  0.33394733  0.33394448  0.50402179  1
  Au  Au13  1  0.34108589  0.66409151  0.50591963  1
  Au  Au14  1  0.33321427  0.00150708  0.50299088  1
  Au  Au15  1  0.66386226  0.34088329  0.50569174  1
  Au  Au16  1  0.66921139  0.66918113  0.50531708  1
  Au  Au17  1  0.66827056  0.00373681  0.50284800  1
  Au  Au18  1  0.13333300  0.13333300  0.40000000  1
  Au  Au19  1  0.13333300  0.46666600  0.40000000  1
  Au  Au20  1  0.13333300  0.80000000  0.40000000  1
  Au  Au21  1  0.46666600  0.13333300  0.40000000  1
  Au  Au22  1  0.46666700  0.46666700  0.40000000  1
  Au  Au23  1  0.46666700  0.80000000  0.40000000  1
  Au  Au24  1  0.80000000  0.13333300  0.40000000  1
  Au  Au25  1  0.80000000  0.46666700  0.40000000  1
  Au  Au26  1  0.80000000  0.80000000  0.40000000  1
  C  C27  1  0.55700565  0.54292660  0.69908060  1
  H  H28  1  0.46692529  0.50058466  0.72237501  1
  O  O29  1  0.65210709  0.58437818  0.72482043  1
