# generated using pymatgen
data_HAu27
_symmetry_space_group_name_H-M   'P 1'
_cell_length_a   8.57606266
_cell_length_b   8.57606266
_cell_length_c   23.65109797
_cell_angle_alpha   88.12641697
_cell_angle_beta   88.12641697
_cell_angle_gamma   63.40130658
_symmetry_Int_Tables_number   1
_chemical_formula_structural   HAu27
_chemical_formula_sum   'H1 Au27'
_cell_volume   1554.26011481
_cell_formula_units_Z   1
loop_
 _symmetry_equiv_pos_site_id
 _symmetry_equiv_pos_as_xyz
  1  'x, y, z'
loop_
 _atom_site_type_symbol
 _atom_site_label
 _atom_site_symmetry_multiplicity
 _atom_site_fract_x
 _atom_site_fract_y
 _atom_site_fract_z
 _atom_site_occupancy
  Au  Au0  1  0.20405603  0.20405598  0.60576706  1
  Au  Au1  1  0.19926232  0.53846276  0.60558669  1
  Au  Au2  1  0.19808817  0.87433264  0.60520761  1
  Au  Au3  1  0.53846282  0.19926224  0.60558669  1
  Au  Au4  1  0.53586822  0.53586817  0.60638792  1
  Au  Au5  1  0.53294592  0.87317253  0.60579283  1
  Au  Au6  1  0.87433268  0.19808811  0.60520761  1
  Au  Au7  1  0.87317255  0.53294588  0.60579283  1
  Au  Au8  1  0.86800032  0.86800028  0.60519976  1
  Au  Au9  1  0.00000721  0.33377399  0.50271793  1
  Au  Au10  1  0.00114881  0.66804780  0.50220468  1
  Au  Au11  1  0.00047022  0.00047017  0.50184477  1
  Au  Au12  1  0.33316946  0.33316941  0.50322362  1
  Au  Au13  1  0.33778567  0.66429947  0.50355427  1
  Au  Au14  1  0.33377400  0.00000721  0.50271792  1
  Au  Au15  1  0.66429948  0.33778567  0.50355428  1
  Au  Au16  1  0.66730426  0.66730420  0.50364432  1
  Au  Au17  1  0.66804781  0.00114878  0.50220468  1
  Au  Au18  1  0.13333300  0.13333300  0.40000000  1
  Au  Au19  1  0.13333300  0.46666600  0.40000000  1
  Au  Au20  1  0.13333300  0.80000000  0.40000000  1
  Au  Au21  1  0.46666600  0.13333300  0.40000000  1
  Au  Au22  1  0.46666700  0.46666700  0.40000000  1
  Au  Au23  1  0.46666700  0.80000000  0.40000000  1
  Au  Au24  1  0.80000000  0.13333300  0.40000000  1
  Au  Au25  1  0.80000000  0.46666700  0.40000000  1
  Au  Au26  1  0.80000000  0.80000000  0.40000000  1
  H  H27  1  0.53245132  0.53245131  0.67416921  1
