# generated using pymatgen
data_HAu27O
_symmetry_space_group_name_H-M   'P 1'
_cell_length_a   8.57606266
_cell_length_b   8.57606266
_cell_length_c   23.65109797
_cell_angle_alpha   88.12641697
_cell_angle_beta   88.12641697
_cell_angle_gamma   63.40130658
_symmetry_Int_Tables_number   1
_chemical_formula_structural   HAu27O
_chemical_formula_sum   'H1 Au27 O1'
_cell_volume   1554.26011481
_cell_formula_units_Z   1
loop_
 _symmetry_equiv_pos_site_id
 _symmetry_equiv_pos_as_xyz
  1  'x, y, z'
loop_
 _atom_site_type_symbol
 _atom_site_label
 _atom_site_symmetry_multiplicity
 _atom_site_fract_x
 _atom_site_fract_y
 _atom_site_fract_z
 _atom_site_occupancy
  Au  Au0  1  0.20625190  0.20625180  0.60364781  1
  Au  Au1  1  0.20235885  0.54108432  0.60227947  1
  Au  Au2  1  0.19792879  0.87747865  0.60256367  1
  Au  Au3  1  0.54108434  0.20235889  0.60227958  1
  Au  Au4  1  0.54393717  0.54393701  0.60280314  1
  Au  Au5  1  0.53176638  0.88072833  0.60380686  1
  Au  Au6  1  0.87747874  0.19792874  0.60256368  1
  Au  Au7  1  0.88072840  0.53176632  0.60380686  1
  Au  Au8  1  0.86879022  0.86879027  0.60335113  1
  Au  Au9  1  0.99971343  0.33409375  0.50134550  1
  Au  Au10  1  0.99922610  0.66793037  0.50111434  1
  Au  Au11  1  0.00011775  0.00011778  0.50084184  1
  Au  Au12  1  0.33367702  0.33367694  0.50183736  1
  Au  Au13  1  0.33436331  0.66594261  0.50229402  1
  Au  Au14  1  0.33409380  0.99971336  0.50134550  1
  Au  Au15  1  0.66594268  0.33436332  0.50229404  1
  Au  Au16  1  0.66493585  0.66493583  0.50387931  1
  Au  Au17  1  0.66793031  0.99922613  0.50111437  1
  Au  Au18  1  0.13333300  0.13333300  0.40000000  1
  Au  Au19  1  0.13333300  0.46666600  0.40000000  1
  Au  Au20  1  0.13333300  0.80000000  0.40000000  1
  Au  Au21  1  0.46666600  0.13333300  0.40000000  1
  Au  Au22  1  0.46666700  0.46666700  0.40000000  1
  Au  Au23  1  0.46666700  0.80000000  0.40000000  1
  Au  Au24  1  0.80000000  0.13333300  0.40000000  1
  Au  Au25  1  0.80000000  0.46666700  0.40000000  1
  Au  Au26  1  0.80000000  0.80000000  0.40000000  1
  O  O27  1  0.49411935  0.49412067  0.68549756  1
  H  H28  1  0.54682748  0.54682635  0.71051902  1
