# generated using pymatgen
data_H3Au27N
_symmetry_space_group_name_H-M   'P 1'
_cell_length_a   8.57606266
_cell_length_b   8.57606266
_cell_length_c   23.65109797
_cell_angle_alpha   88.12641697
_cell_angle_beta   88.12641697
_cell_angle_gamma   63.40130658
_symmetry_Int_Tables_number   1
_chemical_formula_structural   H3Au27N
_chemical_formula_sum   'H3 Au27 N1'
_cell_volume   1554.26011481
_cell_formula_units_Z   1
loop_
 _symmetry_equiv_pos_site_id
 _symmetry_equiv_pos_as_xyz
  1  'x, y, z'
loop_
 _atom_site_type_symbol
 _atom_site_label
 _atom_site_symmetry_multiplicity
 _atom_site_fract_x
 _atom_site_fract_y
 _atom_site_fract_z
 _atom_site_occupancy
  Au  Au0  1  0.20548465  0.20528748  0.60888249  1
  Au  Au1  1  0.20134219  0.53972197  0.60535415  1
  Au  Au2  1  0.19881330  0.87621412  0.60587334  1
  Au  Au3  1  0.53998933  0.20061867  0.60527799  1
  Au  Au4  1  0.53828244  0.53696607  0.60803536  1
  Au  Au5  1  0.53384778  0.87511752  0.60568539  1
  Au  Au6  1  0.87614037  0.19878137  0.60611034  1
  Au  Au7  1  0.87587925  0.53353176  0.60556910  1
  Au  Au8  1  0.86900939  0.86876172  0.60833072  1
  Au  Au9  1  0.00229510  0.33352842  0.50329414  1
  Au  Au10  1  0.00041044  0.66979145  0.50257419  1
  Au  Au11  1  0.00101931  0.00112840  0.50205774  1
  Au  Au12  1  0.33427063  0.33415311  0.50349031  1
  Au  Au13  1  0.33669641  0.66620416  0.50528407  1
  Au  Au14  1  0.33371667  0.00209638  0.50332828  1
  Au  Au15  1  0.66636278  0.33658584  0.50529317  1
  Au  Au16  1  0.66730713  0.66721678  0.50495723  1
  Au  Au17  1  0.66990247  0.00021447  0.50253779  1
  Au  Au18  1  0.13333300  0.13333300  0.40000000  1
  Au  Au19  1  0.13333300  0.46666600  0.40000000  1
  Au  Au20  1  0.13333300  0.80000000  0.40000000  1
  Au  Au21  1  0.46666600  0.13333300  0.40000000  1
  Au  Au22  1  0.46666700  0.46666700  0.40000000  1
  Au  Au23  1  0.46666700  0.80000000  0.40000000  1
  Au  Au24  1  0.80000000  0.13333300  0.40000000  1
  Au  Au25  1  0.80000000  0.46666700  0.40000000  1
  Au  Au26  1  0.80000000  0.80000000  0.40000000  1
  N  N27  1  0.52633170  0.53040242  0.70689855  1
  H  H28  1  0.61614899  0.56348433  0.72365536  1
  H  H29  1  0.40461231  0.61637459  0.72138616  1
  H  H30  1  0.55118353  0.40783080  0.72174108  1
