# generated using pymatgen
data_HRh27
_symmetry_space_group_name_H-M   'P 1'
_cell_length_a   8.03675400
_cell_length_b   8.03670000
_cell_length_c   22.73128200
_cell_angle_alpha   89.99972196
_cell_angle_beta   89.99972196
_cell_angle_gamma   89.99991445
_symmetry_Int_Tables_number   1
_chemical_formula_structural   HRh27
_chemical_formula_sum   'H1 Rh27'
_cell_volume   1468.19033829
_cell_formula_units_Z   1
loop_
 _symmetry_equiv_pos_site_id
 _symmetry_equiv_pos_as_xyz
  1  'x, y, z'
loop_
 _atom_site_type_symbol
 _atom_site_label
 _atom_site_symmetry_multiplicity
 _atom_site_fract_x
 _atom_site_fract_y
 _atom_site_fract_z
 _atom_site_occupancy
  Rh  Rh0  1  0.99999500  0.99999900  0.45676500  1
  Rh  Rh1  1  0.99998600  0.33332500  0.45675900  1
  Rh  Rh2  1  0.99997900  0.66667100  0.45675400  1
  Rh  Rh3  1  0.33332500  0.99999700  0.45676100  1
  Rh  Rh4  1  0.33334000  0.33333100  0.45675900  1
  Rh  Rh5  1  0.33334900  0.66666500  0.45675400  1
  Rh  Rh6  1  0.66666400  0.99999200  0.45674300  1
  Rh  Rh7  1  0.66666200  0.33334600  0.45674700  1
  Rh  Rh8  1  0.66666200  0.66665800  0.45674400  1
  Rh  Rh9  1  0.16666700  0.16666700  0.37500000  1
  Rh  Rh10  1  0.16666700  0.50000000  0.37500000  1
  Rh  Rh11  1  0.16666700  0.83333300  0.37500000  1
  Rh  Rh12  1  0.50000000  0.16666700  0.37500000  1
  Rh  Rh13  1  0.50000000  0.50000000  0.37500000  1
  Rh  Rh14  1  0.50000000  0.83333300  0.37500000  1
  Rh  Rh15  1  0.83333300  0.16666700  0.37500000  1
  Rh  Rh16  1  0.83333300  0.50000000  0.37500000  1
  Rh  Rh17  1  0.83333300  0.83333300  0.37500000  1
  Rh  Rh18  1  0.16612684  0.16613221  0.53833921  1
  Rh  Rh19  1  0.16625129  0.50000247  0.53829832  1
  Rh  Rh20  1  0.16612639  0.83385573  0.53833760  1
  Rh  Rh21  1  0.50000899  0.16625317  0.53829862  1
  Rh  Rh22  1  0.50000111  0.49999933  0.53971170  1
  Rh  Rh23  1  0.50000690  0.83373808  0.53829890  1
  Rh  Rh24  1  0.83384697  0.16612725  0.53833650  1
  Rh  Rh25  1  0.83372893  0.50000005  0.53829972  1
  Rh  Rh26  1  0.83385048  0.83386446  0.53833682  1
  H  H27  1  0.49999972  0.50000107  0.60967501  1
