# generated using pymatgen
data_Ag27CO2
_symmetry_space_group_name_H-M   'P 1'
_cell_length_a   8.60496519
_cell_length_b   8.60496881
_cell_length_c   23.47925300
_cell_angle_alpha   90.00483404
_cell_angle_beta   93.49762144
_cell_angle_gamma   119.99565775
_symmetry_Int_Tables_number   1
_chemical_formula_structural   Ag27CO2
_chemical_formula_sum   'Ag27 C1 O2'
_cell_volume   1501.93330901
_cell_formula_units_Z   1
loop_
 _symmetry_equiv_pos_site_id
 _symmetry_equiv_pos_as_xyz
  1  'x, y, z'
loop_
 _atom_site_type_symbol
 _atom_site_label
 _atom_site_symmetry_multiplicity
 _atom_site_fract_x
 _atom_site_fract_y
 _atom_site_fract_z
 _atom_site_occupancy
  Ag  Ag0  1  0.20000000  0.26666700  0.40000000  1
  Ag  Ag1  1  0.20000000  0.60000000  0.40000000  1
  Ag  Ag2  1  0.20000000  0.93333300  0.40000000  1
  Ag  Ag3  1  0.53333300  0.26666700  0.40000000  1
  Ag  Ag4  1  0.53333300  0.60000000  0.40000000  1
  Ag  Ag5  1  0.53333300  0.93333300  0.40000000  1
  Ag  Ag6  1  0.86666700  0.26666700  0.40000000  1
  Ag  Ag7  1  0.86666700  0.60000000  0.40000000  1
  Ag  Ag8  1  0.86666700  0.93333300  0.40000000  1
  Ag  Ag9  1  0.33419355  0.16767689  0.50219054  1
  Ag  Ag10  1  0.33419876  0.49972555  0.50229066  1
  Ag  Ag11  1  0.33310701  0.83306270  0.50223771  1
  Ag  Ag12  1  0.66720376  0.16713602  0.50231271  1
  Ag  Ag13  1  0.66598888  0.49944623  0.50241601  1
  Ag  Ag14  1  0.66705220  0.83331891  0.50247539  1
  Ag  Ag15  1  0.00066703  0.16716211  0.50225369  1
  Ag  Ag16  1  0.00045596  0.50028541  0.50250171  1
  Ag  Ag17  1  0.00058105  0.83304186  0.50217484  1
  Ag  Ag18  1  0.13149212  0.06488137  0.60361397  1
  Ag  Ag19  1  0.13332256  0.39999890  0.60447925  1
  Ag  Ag20  1  0.13397125  0.73322268  0.60462786  1
  Ag  Ag21  1  0.46790128  0.06520688  0.60374271  1
  Ag  Ag22  1  0.46778963  0.40059146  0.60567373  1
  Ag  Ag23  1  0.46683222  0.73510702  0.60386490  1
  Ag  Ag24  1  0.80099438  0.06717277  0.60493723  1
  Ag  Ag25  1  0.80119056  0.40000890  0.60471186  1
  Ag  Ag26  1  0.80262387  0.73486152  0.60392038  1
  C  C27  1  0.47324453  0.40408340  0.70210884  1
  O  O28  1  0.55159404  0.55846328  0.72305915  1
  O  O29  1  0.39813806  0.25140677  0.72085206  1
