# generated using pymatgen
data_Ag27N2
_symmetry_space_group_name_H-M   'P 1'
_cell_length_a   8.60496519
_cell_length_b   8.60496881
_cell_length_c   23.47925300
_cell_angle_alpha   90.00483404
_cell_angle_beta   93.49762144
_cell_angle_gamma   119.99565775
_symmetry_Int_Tables_number   1
_chemical_formula_structural   Ag27N2
_chemical_formula_sum   'Ag27 N2'
_cell_volume   1501.93330901
_cell_formula_units_Z   1
loop_
 _symmetry_equiv_pos_site_id
 _symmetry_equiv_pos_as_xyz
  1  'x, y, z'
loop_
 _atom_site_type_symbol
 _atom_site_label
 _atom_site_symmetry_multiplicity
 _atom_site_fract_x
 _atom_site_fract_y
 _atom_site_fract_z
 _atom_site_occupancy
  Ag  Ag0  1  0.20000000  0.26666700  0.40000000  1
  Ag  Ag1  1  0.20000000  0.60000000  0.40000000  1
  Ag  Ag2  1  0.20000000  0.93333300  0.40000000  1
  Ag  Ag3  1  0.53333300  0.26666700  0.40000000  1
  Ag  Ag4  1  0.53333300  0.60000000  0.40000000  1
  Ag  Ag5  1  0.53333300  0.93333300  0.40000000  1
  Ag  Ag6  1  0.86666700  0.26666700  0.40000000  1
  Ag  Ag7  1  0.86666700  0.60000000  0.40000000  1
  Ag  Ag8  1  0.86666700  0.93333300  0.40000000  1
  Ag  Ag9  1  0.33308634  0.16609396  0.50049489  1
  Ag  Ag10  1  0.33309334  0.50033051  0.50049093  1
  Ag  Ag11  1  0.33301736  0.83318010  0.50071509  1
  Ag  Ag12  1  0.66715564  0.16662379  0.50115375  1
  Ag  Ag13  1  0.66731821  0.50033097  0.50060253  1
  Ag  Ag14  1  0.66716025  0.83387247  0.50115426  1
  Ag  Ag15  1  0.99976045  0.16654326  0.50108305  1
  Ag  Ag16  1  0.00024570  0.50058852  0.50068579  1
  Ag  Ag17  1  0.00024965  0.83300243  0.50068817  1
  Ag  Ag18  1  0.13199527  0.06518139  0.60139334  1
  Ag  Ag19  1  0.13199134  0.40019148  0.60138597  1
  Ag  Ag20  1  0.13388326  0.73363059  0.60258203  1
  Ag  Ag21  1  0.46699734  0.06552604  0.60157394  1
  Ag  Ag22  1  0.46641435  0.39989606  0.59908250  1
  Ag  Ag23  1  0.46698774  0.73481904  0.60157698  1
  Ag  Ag24  1  0.80064656  0.06699675  0.60305729  1
  Ag  Ag25  1  0.80139414  0.40022217  0.60175203  1
  Ag  Ag26  1  0.80139883  0.73454078  0.60175284  1
  N  N27  1  0.47351070  0.40338974  0.70422322  1
  N  N28  1  0.48023978  0.40681625  0.75149480  1
