# generated using pymatgen
data_HAu27
_symmetry_space_group_name_H-M   'P 1'
_cell_length_a   8.57606266
_cell_length_b   8.57606266
_cell_length_c   23.65109797
_cell_angle_alpha   88.12641697
_cell_angle_beta   88.12641697
_cell_angle_gamma   63.40130658
_symmetry_Int_Tables_number   1
_chemical_formula_structural   HAu27
_chemical_formula_sum   'H1 Au27'
_cell_volume   1554.26011481
_cell_formula_units_Z   1
loop_
 _symmetry_equiv_pos_site_id
 _symmetry_equiv_pos_as_xyz
  1  'x, y, z'
loop_
 _atom_site_type_symbol
 _atom_site_label
 _atom_site_symmetry_multiplicity
 _atom_site_fract_x
 _atom_site_fract_y
 _atom_site_fract_z
 _atom_site_occupancy
  Au  Au0  1  0.20313949  0.20313945  0.60608571  1
  Au  Au1  1  0.20609435  0.53511146  0.60563409  1
  Au  Au2  1  0.19706499  0.87182196  0.60616186  1
  Au  Au3  1  0.53511146  0.20609433  0.60563409  1
  Au  Au4  1  0.53505795  0.53505793  0.60933254  1
  Au  Au5  1  0.52722106  0.88014190  0.60984341  1
  Au  Au6  1  0.87182201  0.19706492  0.60616185  1
  Au  Au7  1  0.88014189  0.52722109  0.60984341  1
  Au  Au8  1  0.86802306  0.86802299  0.60610647  1
  Au  Au9  1  0.99879318  0.33628958  0.50389086  1
  Au  Au10  1  0.00076551  0.66836533  0.50360744  1
  Au  Au11  1  0.00168982  0.00168980  0.50194148  1
  Au  Au12  1  0.33375199  0.33375197  0.50213089  1
  Au  Au13  1  0.33722034  0.66600761  0.50396582  1
  Au  Au14  1  0.33628962  0.99879312  0.50389085  1
  Au  Au15  1  0.66600762  0.33722034  0.50396582  1
  Au  Au16  1  0.66893657  0.66893649  0.50329590  1
  Au  Au17  1  0.66836533  0.00076551  0.50360742  1
  Au  Au18  1  0.13333300  0.13333300  0.40000000  1
  Au  Au19  1  0.13333300  0.46666600  0.40000000  1
  Au  Au20  1  0.13333300  0.80000000  0.40000000  1
  Au  Au21  1  0.46666600  0.13333300  0.40000000  1
  Au  Au22  1  0.46666700  0.46666700  0.40000000  1
  Au  Au23  1  0.46666700  0.80000000  0.40000000  1
  Au  Au24  1  0.80000000  0.13333300  0.40000000  1
  Au  Au25  1  0.80000000  0.46666700  0.40000000  1
  Au  Au26  1  0.80000000  0.80000000  0.40000000  1
  H  H27  1  0.65216021  0.65216014  0.64008379  1
