# generated using pymatgen
data_Te16Mo12H
_symmetry_space_group_name_H-M   'P 1'
_cell_length_a   7.04082001
_cell_length_b   7.04195269
_cell_length_c   29.08263700
_cell_angle_alpha   92.42233475
_cell_angle_beta   92.43396473
_cell_angle_gamma   92.45457226
_symmetry_Int_Tables_number   1
_chemical_formula_structural   Te16Mo12H
_chemical_formula_sum   'Te16 Mo12 H1'
_cell_volume   1437.92269216
_cell_formula_units_Z   1
loop_
 _symmetry_equiv_pos_site_id
 _symmetry_equiv_pos_as_xyz
  1  'x, y, z'
loop_
 _atom_site_type_symbol
 _atom_site_label
 _atom_site_symmetry_multiplicity
 _atom_site_fract_x
 _atom_site_fract_y
 _atom_site_fract_z
 _atom_site_occupancy
  Mo  Mo0  1  0.24250331  0.54754619  0.35204051  1
  Mo  Mo1  1  0.24318604  0.54354386  0.59534301  1
  Mo  Mo2  1  0.75719883  0.45830479  0.39033168  1
  Mo  Mo3  1  0.75876405  0.45482853  0.63358456  1
  Mo  Mo4  1  0.41769340  0.24546878  0.38170127  1
  Mo  Mo5  1  0.42028102  0.24219630  0.62465665  1
  Mo  Mo6  1  0.57443345  0.76062332  0.36134648  1
  Mo  Mo7  1  0.58214333  0.75698730  0.60417716  1
  Mo  Mo8  1  0.54335900  0.41937700  0.30833700  1
  Mo  Mo9  1  0.54457196  0.41929686  0.54953669  1
  Mo  Mo10  1  0.45514836  0.58126193  0.43521316  1
  Mo  Mo11  1  0.45087788  0.58345591  0.67497062  1
  Te  Te12  1  0.11506987  0.37749715  0.43181801  1
  Te  Te13  1  0.11890383  0.37303555  0.67597682  1
  Te  Te14  1  0.88219500  0.62512800  0.31051700  1
  Te  Te15  1  0.88514202  0.62144920  0.55371631  1
  Te  Te16  1  0.74986000  0.11788600  0.34077800  1
  Te  Te17  1  0.74903319  0.11803695  0.58172552  1
  Te  Te18  1  0.25050453  0.88468379  0.40338684  1
  Te  Te19  1  0.25087222  0.88258987  0.64805477  1
  Te  Te20  1  0.37496100  0.74994600  0.27852400  1
  Te  Te21  1  0.37665363  0.74969019  0.52203331  1
  Te  Te22  1  0.62601790  0.24911177  0.46311876  1
  Te  Te23  1  0.63082207  0.25178668  0.70591755  1
  Te  Te24  1  0.20510400  0.20534500  0.29972100  1
  Te  Te25  1  0.21240707  0.20221172  0.54235444  1
  Te  Te26  1  0.79258804  0.79454530  0.44291306  1
  Te  Te27  1  0.78354622  0.79205447  0.68832176  1
  H  H28  1  0.51956996  0.47231978  0.73142765  1
