# generated using pymatgen
data_Ag27O
_symmetry_space_group_name_H-M   'P 1'
_cell_length_a   8.60496519
_cell_length_b   8.60496881
_cell_length_c   23.47925300
_cell_angle_alpha   90.00483404
_cell_angle_beta   93.49762144
_cell_angle_gamma   119.99565775
_symmetry_Int_Tables_number   1
_chemical_formula_structural   Ag27O
_chemical_formula_sum   'Ag27 O1'
_cell_volume   1501.93330901
_cell_formula_units_Z   1
loop_
 _symmetry_equiv_pos_site_id
 _symmetry_equiv_pos_as_xyz
  1  'x, y, z'
loop_
 _atom_site_type_symbol
 _atom_site_label
 _atom_site_symmetry_multiplicity
 _atom_site_fract_x
 _atom_site_fract_y
 _atom_site_fract_z
 _atom_site_occupancy
  Ag  Ag0  1  0.20000000  0.26666700  0.40000000  1
  Ag  Ag1  1  0.20000000  0.60000000  0.40000000  1
  Ag  Ag2  1  0.20000000  0.93333300  0.40000000  1
  Ag  Ag3  1  0.53333300  0.26666700  0.40000000  1
  Ag  Ag4  1  0.53333300  0.60000000  0.40000000  1
  Ag  Ag5  1  0.53333300  0.93333300  0.40000000  1
  Ag  Ag6  1  0.86666700  0.26666700  0.40000000  1
  Ag  Ag7  1  0.86666700  0.60000000  0.40000000  1
  Ag  Ag8  1  0.86666700  0.93333300  0.40000000  1
  Ag  Ag9  1  0.33962710  0.16990451  0.50126714  1
  Ag  Ag10  1  0.33963287  0.50305433  0.50126644  1
  Ag  Ag11  1  0.33914870  0.83625445  0.50124980  1
  Ag  Ag12  1  0.67329947  0.17047612  0.50120260  1
  Ag  Ag13  1  0.67012479  0.50172927  0.50104093  1
  Ag  Ag14  1  0.67330274  0.83617746  0.50120061  1
  Ag  Ag15  1  0.00644956  0.16989019  0.50121526  1
  Ag  Ag16  1  0.00824234  0.50154522  0.50116028  1
  Ag  Ag17  1  0.00822542  0.84000894  0.50115843  1
  Ag  Ag18  1  0.13692271  0.05898769  0.60325081  1
  Ag  Ag19  1  0.13694871  0.41132058  0.60325585  1
  Ag  Ag20  1  0.14170812  0.73753665  0.60161397  1
  Ag  Ag21  1  0.47698628  0.07127324  0.60201091  1
  Ag  Ag22  1  0.49077715  0.41207793  0.60301728  1
  Ag  Ag23  1  0.47698896  0.73909165  0.60200750  1
  Ag  Ag24  1  0.80889766  0.07113278  0.60188127  1
  Ag  Ag25  1  0.81094425  0.40668028  0.60142939  1
  Ag  Ag26  1  0.81094695  0.73761232  0.60142561  1
  O  O27  1  0.26726858  0.30030833  0.65368042  1
