# generated using pymatgen
data_Au27N2
_symmetry_space_group_name_H-M   'P 1'
_cell_length_a   8.57606266
_cell_length_b   8.57606266
_cell_length_c   23.65109797
_cell_angle_alpha   88.12641697
_cell_angle_beta   88.12641697
_cell_angle_gamma   63.40130658
_symmetry_Int_Tables_number   1
_chemical_formula_structural   Au27N2
_chemical_formula_sum   'Au27 N2'
_cell_volume   1554.26011481
_cell_formula_units_Z   1
loop_
 _symmetry_equiv_pos_site_id
 _symmetry_equiv_pos_as_xyz
  1  'x, y, z'
loop_
 _atom_site_type_symbol
 _atom_site_label
 _atom_site_symmetry_multiplicity
 _atom_site_fract_x
 _atom_site_fract_y
 _atom_site_fract_z
 _atom_site_occupancy
  Au  Au0  1  0.20515298  0.20515465  0.60524319  1
  Au  Au1  1  0.20494742  0.53855197  0.60426256  1
  Au  Au2  1  0.20333945  0.87267005  0.60480538  1
  Au  Au3  1  0.53855063  0.20494762  0.60426263  1
  Au  Au4  1  0.53986551  0.53986489  0.60025985  1
  Au  Au5  1  0.53682497  0.87332135  0.60476351  1
  Au  Au6  1  0.87266831  0.20334156  0.60480542  1
  Au  Au7  1  0.87332106  0.53682680  0.60476356  1
  Au  Au8  1  0.87083068  0.87083296  0.60515482  1
  Au  Au9  1  0.00188629  0.33362440  0.50244291  1
  Au  Au10  1  0.00009290  0.66777139  0.50227850  1
  Au  Au11  1  0.00063913  0.00064022  0.50229599  1
  Au  Au12  1  0.33468286  0.33468365  0.50225213  1
  Au  Au13  1  0.33206134  0.66957389  0.50160151  1
  Au  Au14  1  0.33362332  0.00188722  0.50244290  1
  Au  Au15  1  0.66957316  0.33206159  0.50160138  1
  Au  Au16  1  0.66789027  0.66789045  0.50199015  1
  Au  Au17  1  0.66777040  0.00009327  0.50227846  1
  Au  Au18  1  0.13333300  0.13333300  0.40000000  1
  Au  Au19  1  0.13333300  0.46666600  0.40000000  1
  Au  Au20  1  0.13333300  0.80000000  0.40000000  1
  Au  Au21  1  0.46666600  0.13333300  0.40000000  1
  Au  Au22  1  0.46666700  0.46666700  0.40000000  1
  Au  Au23  1  0.46666700  0.80000000  0.40000000  1
  Au  Au24  1  0.80000000  0.13333300  0.40000000  1
  Au  Au25  1  0.80000000  0.46666700  0.40000000  1
  Au  Au26  1  0.80000000  0.80000000  0.40000000  1
  N  N27  1  0.51183605  0.51183841  0.72045872  1
  N  N28  1  0.52940350  0.52939162  0.76565787  1
