# generated using pymatgen
data_HAu27N2
_symmetry_space_group_name_H-M   'P 1'
_cell_length_a   8.57606266
_cell_length_b   8.57606266
_cell_length_c   23.65109797
_cell_angle_alpha   88.12641697
_cell_angle_beta   88.12641697
_cell_angle_gamma   63.40130658
_symmetry_Int_Tables_number   1
_chemical_formula_structural   HAu27N2
_chemical_formula_sum   'H1 Au27 N2'
_cell_volume   1554.26011481
_cell_formula_units_Z   1
loop_
 _symmetry_equiv_pos_site_id
 _symmetry_equiv_pos_as_xyz
  1  'x, y, z'
loop_
 _atom_site_type_symbol
 _atom_site_label
 _atom_site_symmetry_multiplicity
 _atom_site_fract_x
 _atom_site_fract_y
 _atom_site_fract_z
 _atom_site_occupancy
  Au  Au0  1  0.20643010  0.20559403  0.60742369  1
  Au  Au1  1  0.20709068  0.53894578  0.60510796  1
  Au  Au2  1  0.20224090  0.87489840  0.60581658  1
  Au  Au3  1  0.54011348  0.20378604  0.60594903  1
  Au  Au4  1  0.54628787  0.53633049  0.60687966  1
  Au  Au5  1  0.53682741  0.87331943  0.60622695  1
  Au  Au6  1  0.87452288  0.20240504  0.60681755  1
  Au  Au7  1  0.87749586  0.53595340  0.60655986  1
  Au  Au8  1  0.87117147  0.87075332  0.60712660  1
  Au  Au9  1  0.00251771  0.33445766  0.50330593  1
  Au  Au10  1  0.00102672  0.66919744  0.50295464  1
  Au  Au11  1  0.00102970  0.00190376  0.50267121  1
  Au  Au12  1  0.33563914  0.33449048  0.50324538  1
  Au  Au13  1  0.33603242  0.66765400  0.50439137  1
  Au  Au14  1  0.33454014  0.00209626  0.50329536  1
  Au  Au15  1  0.66850352  0.33471522  0.50398695  1
  Au  Au16  1  0.66852550  0.66755373  0.50392063  1
  Au  Au17  1  0.66903951  0.00055226  0.50303660  1
  Au  Au18  1  0.13333300  0.13333300  0.40000000  1
  Au  Au19  1  0.13333300  0.46666600  0.40000000  1
  Au  Au20  1  0.13333300  0.80000000  0.40000000  1
  Au  Au21  1  0.46666600  0.13333300  0.40000000  1
  Au  Au22  1  0.46666700  0.46666700  0.40000000  1
  Au  Au23  1  0.46666700  0.80000000  0.40000000  1
  Au  Au24  1  0.80000000  0.13333300  0.40000000  1
  Au  Au25  1  0.80000000  0.46666700  0.40000000  1
  Au  Au26  1  0.80000000  0.80000000  0.40000000  1
  N  N27  1  0.46805803  0.53913211  0.71769150  1
  N  N28  1  0.52552662  0.52028197  0.76335569  1
  H  H29  1  0.64599727  0.52051209  0.77178014  1
