# generated using pymatgen
data_Te16Mo12CO2
_symmetry_space_group_name_H-M   'P 1'
_cell_length_a   7.04082001
_cell_length_b   7.04195269
_cell_length_c   29.08263700
_cell_angle_alpha   92.42233475
_cell_angle_beta   92.43396473
_cell_angle_gamma   92.45457226
_symmetry_Int_Tables_number   1
_chemical_formula_structural   Te16Mo12CO2
_chemical_formula_sum   'Te16 Mo12 C1 O2'
_cell_volume   1437.92269216
_cell_formula_units_Z   1
loop_
 _symmetry_equiv_pos_site_id
 _symmetry_equiv_pos_as_xyz
  1  'x, y, z'
loop_
 _atom_site_type_symbol
 _atom_site_label
 _atom_site_symmetry_multiplicity
 _atom_site_fract_x
 _atom_site_fract_y
 _atom_site_fract_z
 _atom_site_occupancy
  Mo  Mo0  1  0.24378178  0.54839784  0.35210966  1
  Mo  Mo1  1  0.24633178  0.52858780  0.59538394  1
  Mo  Mo2  1  0.75578762  0.45661499  0.39036638  1
  Mo  Mo3  1  0.76864403  0.43896533  0.63240406  1
  Mo  Mo4  1  0.41796253  0.24466585  0.38159040  1
  Mo  Mo5  1  0.43438191  0.22106493  0.62344641  1
  Mo  Mo6  1  0.57633315  0.75782825  0.36109001  1
  Mo  Mo7  1  0.58742265  0.74481537  0.60352720  1
  Mo  Mo8  1  0.54335900  0.41937700  0.30833700  1
  Mo  Mo9  1  0.54973026  0.40934700  0.55147405  1
  Mo  Mo10  1  0.45491616  0.58026045  0.43515298  1
  Mo  Mo11  1  0.47046859  0.56014357  0.67941005  1
  Te  Te12  1  0.11489195  0.37620705  0.43157618  1
  Te  Te13  1  0.12508537  0.36131012  0.67415352  1
  Te  Te14  1  0.88219500  0.62512800  0.31051700  1
  Te  Te15  1  0.89087043  0.61565705  0.55357938  1
  Te  Te16  1  0.74986000  0.11788600  0.34077800  1
  Te  Te17  1  0.75662922  0.10292502  0.58007753  1
  Te  Te18  1  0.25155700  0.88364584  0.40394337  1
  Te  Te19  1  0.26479538  0.86334119  0.64913436  1
  Te  Te20  1  0.37496100  0.74994600  0.27852400  1
  Te  Te21  1  0.37578426  0.74057390  0.52303488  1
  Te  Te22  1  0.62407250  0.24796277  0.46319034  1
  Te  Te23  1  0.63983283  0.23028563  0.70451481  1
  Te  Te24  1  0.20510400  0.20534500  0.29972100  1
  Te  Te25  1  0.21247887  0.19256247  0.54288942  1
  Te  Te26  1  0.79179264  0.79317476  0.44303893  1
  Te  Te27  1  0.79836793  0.78286136  0.68460422  1
  C  C28  1  0.43926578  0.62645535  0.75564748  1
  O  O29  1  0.40774058  0.79847176  0.76898315  1
  O  O30  1  0.44548533  0.49663462  0.78542837  1
