# generated using pymatgen
data_HAu27
_symmetry_space_group_name_H-M   'P 1'
_cell_length_a   8.57606266
_cell_length_b   8.57606266
_cell_length_c   23.65109797
_cell_angle_alpha   88.12641697
_cell_angle_beta   88.12641697
_cell_angle_gamma   63.40130658
_symmetry_Int_Tables_number   1
_chemical_formula_structural   HAu27
_chemical_formula_sum   'H1 Au27'
_cell_volume   1554.26011481
_cell_formula_units_Z   1
loop_
 _symmetry_equiv_pos_site_id
 _symmetry_equiv_pos_as_xyz
  1  'x, y, z'
loop_
 _atom_site_type_symbol
 _atom_site_label
 _atom_site_symmetry_multiplicity
 _atom_site_fract_x
 _atom_site_fract_y
 _atom_site_fract_z
 _atom_site_occupancy
  Au  Au0  1  0.20613765  0.20613763  0.61007848  1
  Au  Au1  1  0.20066999  0.54083857  0.60902576  1
  Au  Au2  1  0.19906591  0.87713800  0.60860475  1
  Au  Au3  1  0.54083857  0.20066996  0.60902576  1
  Au  Au4  1  0.53769702  0.53769709  0.61148130  1
  Au  Au5  1  0.53424473  0.87587353  0.60900265  1
  Au  Au6  1  0.87713812  0.19906580  0.60860475  1
  Au  Au7  1  0.87587353  0.53424469  0.60900266  1
  Au  Au8  1  0.86961055  0.86961045  0.60949298  1
  Au  Au9  1  0.00116112  0.33449825  0.50458865  1
  Au  Au10  1  0.00205754  0.66892085  0.50414277  1
  Au  Au11  1  0.00130579  0.00130579  0.50352715  1
  Au  Au12  1  0.33402885  0.33402879  0.50503162  1
  Au  Au13  1  0.33890063  0.66481784  0.50644671  1
  Au  Au14  1  0.33449828  0.00116109  0.50458868  1
  Au  Au15  1  0.66481783  0.33890062  0.50644667  1
  Au  Au16  1  0.66837366  0.66837372  0.50605601  1
  Au  Au17  1  0.66892090  0.00205740  0.50414274  1
  Au  Au18  1  0.13333300  0.13333300  0.40000000  1
  Au  Au19  1  0.13333300  0.46666600  0.40000000  1
  Au  Au20  1  0.13333300  0.80000000  0.40000000  1
  Au  Au21  1  0.46666600  0.13333300  0.40000000  1
  Au  Au22  1  0.46666700  0.46666700  0.40000000  1
  Au  Au23  1  0.46666700  0.80000000  0.40000000  1
  Au  Au24  1  0.80000000  0.13333300  0.40000000  1
  Au  Au25  1  0.80000000  0.46666700  0.40000000  1
  Au  Au26  1  0.80000000  0.80000000  0.40000000  1
  H  H27  1  0.53493496  0.53493501  0.67997427  1
