# generated using pymatgen
data_Au27CO2
_symmetry_space_group_name_H-M   'P 1'
_cell_length_a   8.57606266
_cell_length_b   8.57606266
_cell_length_c   23.65109797
_cell_angle_alpha   88.12641697
_cell_angle_beta   88.12641697
_cell_angle_gamma   63.40130658
_symmetry_Int_Tables_number   1
_chemical_formula_structural   Au27CO2
_chemical_formula_sum   'Au27 C1 O2'
_cell_volume   1554.26011481
_cell_formula_units_Z   1
loop_
 _symmetry_equiv_pos_site_id
 _symmetry_equiv_pos_as_xyz
  1  'x, y, z'
loop_
 _atom_site_type_symbol
 _atom_site_label
 _atom_site_symmetry_multiplicity
 _atom_site_fract_x
 _atom_site_fract_y
 _atom_site_fract_z
 _atom_site_occupancy
  Au  Au0  1  0.20344881  0.20402620  0.60682915  1
  Au  Au1  1  0.20338695  0.53737417  0.60631065  1
  Au  Au2  1  0.20163600  0.87132328  0.60547864  1
  Au  Au3  1  0.53684030  0.20313291  0.60510963  1
  Au  Au4  1  0.53710767  0.53788781  0.59854074  1
  Au  Au5  1  0.53611939  0.87125088  0.60519956  1
  Au  Au6  1  0.87155550  0.20161757  0.60545790  1
  Au  Au7  1  0.87031926  0.53549099  0.60636323  1
  Au  Au8  1  0.86946230  0.86903960  0.60683389  1
  Au  Au9  1  0.00163285  0.33367137  0.50301531  1
  Au  Au10  1  0.99992149  0.66704249  0.50316688  1
  Au  Au11  1  0.00044218  0.00041197  0.50244878  1
  Au  Au12  1  0.33368423  0.33544794  0.50286926  1
  Au  Au13  1  0.33026785  0.67109727  0.50095564  1
  Au  Au14  1  0.33322403  0.00256296  0.50289898  1
  Au  Au15  1  0.67043884  0.32999425  0.50101798  1
  Au  Au16  1  0.66822755  0.66714032  0.50167458  1
  Au  Au17  1  0.66792311  0.99912958  0.50273708  1
  Au  Au18  1  0.13333300  0.13333300  0.40000000  1
  Au  Au19  1  0.13333300  0.46666600  0.40000000  1
  Au  Au20  1  0.13333300  0.80000000  0.40000000  1
  Au  Au21  1  0.46666600  0.13333300  0.40000000  1
  Au  Au22  1  0.46666700  0.46666700  0.40000000  1
  Au  Au23  1  0.46666700  0.80000000  0.40000000  1
  Au  Au24  1  0.80000000  0.13333300  0.40000000  1
  Au  Au25  1  0.80000000  0.46666700  0.40000000  1
  Au  Au26  1  0.80000000  0.80000000  0.40000000  1
  C  C27  1  0.52718592  0.52700909  0.72654744  1
  O  O28  1  0.45867139  0.67989932  0.72754786  1
  O  O29  1  0.59548846  0.37420937  0.72712870  1
