# generated using pymatgen
data_Au27CO2
_symmetry_space_group_name_H-M   'P 1'
_cell_length_a   8.57606266
_cell_length_b   8.57606266
_cell_length_c   23.65109797
_cell_angle_alpha   88.12641697
_cell_angle_beta   88.12641697
_cell_angle_gamma   63.40130658
_symmetry_Int_Tables_number   1
_chemical_formula_structural   Au27CO2
_chemical_formula_sum   'Au27 C1 O2'
_cell_volume   1554.26011481
_cell_formula_units_Z   1
loop_
 _symmetry_equiv_pos_site_id
 _symmetry_equiv_pos_as_xyz
  1  'x, y, z'
loop_
 _atom_site_type_symbol
 _atom_site_label
 _atom_site_symmetry_multiplicity
 _atom_site_fract_x
 _atom_site_fract_y
 _atom_site_fract_z
 _atom_site_occupancy
  Au  Au0  1  0.20543391  0.20740838  0.60834593  1
  Au  Au1  1  0.20214433  0.54115129  0.60849435  1
  Au  Au2  1  0.20051090  0.87682997  0.60646683  1
  Au  Au3  1  0.53958912  0.20268085  0.60643047  1
  Au  Au4  1  0.53648417  0.53950790  0.61352509  1
  Au  Au5  1  0.53678043  0.87556506  0.60684961  1
  Au  Au6  1  0.87649169  0.20112873  0.60639696  1
  Au  Au7  1  0.87305424  0.53615542  0.60870891  1
  Au  Au8  1  0.87080790  0.87060856  0.60749169  1
  Au  Au9  1  0.00052965  0.33501238  0.50397686  1
  Au  Au10  1  0.00239789  0.66828898  0.50387067  1
  Au  Au11  1  0.00117840  0.00106226  0.50267978  1
  Au  Au12  1  0.33299900  0.33490036  0.50425024  1
  Au  Au13  1  0.33971080  0.66414443  0.50564295  1
  Au  Au14  1  0.33421937  0.00131695  0.50401334  1
  Au  Au15  1  0.66420836  0.33916662  0.50559976  1
  Au  Au16  1  0.66874331  0.66723965  0.50510151  1
  Au  Au17  1  0.66940626  0.00136442  0.50327089  1
  Au  Au18  1  0.13333300  0.13333300  0.40000000  1
  Au  Au19  1  0.13333300  0.46666600  0.40000000  1
  Au  Au20  1  0.13333300  0.80000000  0.40000000  1
  Au  Au21  1  0.46666600  0.13333300  0.40000000  1
  Au  Au22  1  0.46666700  0.46666700  0.40000000  1
  Au  Au23  1  0.46666700  0.80000000  0.40000000  1
  Au  Au24  1  0.80000000  0.13333300  0.40000000  1
  Au  Au25  1  0.80000000  0.46666700  0.40000000  1
  Au  Au26  1  0.80000000  0.80000000  0.40000000  1
  C  C27  1  0.53091978  0.53206609  0.70547357  1
  O  O28  1  0.46411069  0.67858024  0.72639594  1
  O  O29  1  0.59495861  0.38181826  0.72561696  1
