# generated using pymatgen
data_Au27O
_symmetry_space_group_name_H-M   'P 1'
_cell_length_a   8.57606266
_cell_length_b   8.57606266
_cell_length_c   23.65109797
_cell_angle_alpha   88.12641697
_cell_angle_beta   88.12641697
_cell_angle_gamma   63.40130658
_symmetry_Int_Tables_number   1
_chemical_formula_structural   Au27O
_chemical_formula_sum   'Au27 O1'
_cell_volume   1554.26011481
_cell_formula_units_Z   1
loop_
 _symmetry_equiv_pos_site_id
 _symmetry_equiv_pos_as_xyz
  1  'x, y, z'
loop_
 _atom_site_type_symbol
 _atom_site_label
 _atom_site_symmetry_multiplicity
 _atom_site_fract_x
 _atom_site_fract_y
 _atom_site_fract_z
 _atom_site_occupancy
  Au  Au0  1  0.21416567  0.21416562  0.60056278  1
  Au  Au1  1  0.18965900  0.56159111  0.60581158  1
  Au  Au2  1  0.21079432  0.88647459  0.60120962  1
  Au  Au3  1  0.56159104  0.18965908  0.60581162  1
  Au  Au4  1  0.55450241  0.55450256  0.60563800  1
  Au  Au5  1  0.54870392  0.87657279  0.60085960  1
  Au  Au6  1  0.88647459  0.21079439  0.60120964  1
  Au  Au7  1  0.87657268  0.54870409  0.60085959  1
  Au  Au8  1  0.88016165  0.88016175  0.60074910  1
  Au  Au9  1  0.00577836  0.33871707  0.50033390  1
  Au  Au10  1  0.01178527  0.66763619  0.50107527  1
  Au  Au11  1  0.00446745  0.00446755  0.50010318  1
  Au  Au12  1  0.33965759  0.33965783  0.50342814  1
  Au  Au13  1  0.34060105  0.67038040  0.50312362  1
  Au  Au14  1  0.33871698  0.00577843  0.50033391  1
  Au  Au15  1  0.67038027  0.34060114  0.50312363  1
  Au  Au16  1  0.67096214  0.67096222  0.50073557  1
  Au  Au17  1  0.66763594  0.01178551  0.50107527  1
  Au  Au18  1  0.13333300  0.13333300  0.40000000  1
  Au  Au19  1  0.13333300  0.46666600  0.40000000  1
  Au  Au20  1  0.13333300  0.80000000  0.40000000  1
  Au  Au21  1  0.46666600  0.13333300  0.40000000  1
  Au  Au22  1  0.46666700  0.46666700  0.40000000  1
  Au  Au23  1  0.46666700  0.80000000  0.40000000  1
  Au  Au24  1  0.80000000  0.13333300  0.40000000  1
  Au  Au25  1  0.80000000  0.46666700  0.40000000  1
  Au  Au26  1  0.80000000  0.80000000  0.40000000  1
  O  O27  1  0.42552173  0.42552192  0.65135355  1
