# generated using pymatgen
data_Ag27HCO2
_symmetry_space_group_name_H-M   'P 1'
_cell_length_a   8.60496519
_cell_length_b   8.60496881
_cell_length_c   23.47925300
_cell_angle_alpha   90.00483404
_cell_angle_beta   93.49762144
_cell_angle_gamma   119.99565775
_symmetry_Int_Tables_number   1
_chemical_formula_structural   Ag27HCO2
_chemical_formula_sum   'Ag27 H1 C1 O2'
_cell_volume   1501.93330901
_cell_formula_units_Z   1
loop_
 _symmetry_equiv_pos_site_id
 _symmetry_equiv_pos_as_xyz
  1  'x, y, z'
loop_
 _atom_site_type_symbol
 _atom_site_label
 _atom_site_symmetry_multiplicity
 _atom_site_fract_x
 _atom_site_fract_y
 _atom_site_fract_z
 _atom_site_occupancy
  Ag  Ag0  1  0.20000000  0.26666700  0.40000000  1
  Ag  Ag1  1  0.20000000  0.60000000  0.40000000  1
  Ag  Ag2  1  0.20000000  0.93333300  0.40000000  1
  Ag  Ag3  1  0.53333300  0.26666700  0.40000000  1
  Ag  Ag4  1  0.53333300  0.60000000  0.40000000  1
  Ag  Ag5  1  0.53333300  0.93333300  0.40000000  1
  Ag  Ag6  1  0.86666700  0.26666700  0.40000000  1
  Ag  Ag7  1  0.86666700  0.60000000  0.40000000  1
  Ag  Ag8  1  0.86666700  0.93333300  0.40000000  1
  Ag  Ag9  1  0.33396066  0.16307670  0.50223862  1
  Ag  Ag10  1  0.33359274  0.49593742  0.50212486  1
  Ag  Ag11  1  0.33326640  0.82915374  0.50172640  1
  Ag  Ag12  1  0.66729188  0.16265318  0.50200340  1
  Ag  Ag13  1  0.66619060  0.49580540  0.50220354  1
  Ag  Ag14  1  0.66727866  0.82964891  0.50214912  1
  Ag  Ag15  1  0.00028286  0.16271132  0.50208168  1
  Ag  Ag16  1  0.00016643  0.49672585  0.50146572  1
  Ag  Ag17  1  0.00055801  0.82926245  0.50165385  1
  Ag  Ag18  1  0.13218204  0.05902138  0.60312852  1
  Ag  Ag19  1  0.13226993  0.39399108  0.60293833  1
  Ag  Ag20  1  0.13416105  0.72722402  0.60395572  1
  Ag  Ag21  1  0.46771413  0.05882951  0.60324809  1
  Ag  Ag22  1  0.46975100  0.39528373  0.60267780  1
  Ag  Ag23  1  0.46743976  0.72892261  0.60340773  1
  Ag  Ag24  1  0.80088596  0.06063331  0.60464069  1
  Ag  Ag25  1  0.80284423  0.39381998  0.60333214  1
  Ag  Ag26  1  0.80273196  0.72909960  0.60351503  1
  C  C27  1  0.48017089  0.40259085  0.75549298  1
  O  O28  1  0.42595754  0.27364415  0.78966583  1
  O  O29  1  0.45309105  0.38786167  0.70205293  1
  H  H30  1  0.55775290  0.54169463  0.77506707  1
