# generated using pymatgen
data_Au27N2
_symmetry_space_group_name_H-M   'P 1'
_cell_length_a   8.57606266
_cell_length_b   8.57606266
_cell_length_c   23.65109797
_cell_angle_alpha   88.12641697
_cell_angle_beta   88.12641697
_cell_angle_gamma   63.40130658
_symmetry_Int_Tables_number   1
_chemical_formula_structural   Au27N2
_chemical_formula_sum   'Au27 N2'
_cell_volume   1554.26011481
_cell_formula_units_Z   1
loop_
 _symmetry_equiv_pos_site_id
 _symmetry_equiv_pos_as_xyz
  1  'x, y, z'
loop_
 _atom_site_type_symbol
 _atom_site_label
 _atom_site_symmetry_multiplicity
 _atom_site_fract_x
 _atom_site_fract_y
 _atom_site_fract_z
 _atom_site_occupancy
  Au  Au0  1  0.20249289  0.20249297  0.60780374  1
  Au  Au1  1  0.20179861  0.53612981  0.60605691  1
  Au  Au2  1  0.20105666  0.87011846  0.60649189  1
  Au  Au3  1  0.53612980  0.20179853  0.60605693  1
  Au  Au4  1  0.53600576  0.53600587  0.60101607  1
  Au  Au5  1  0.53474016  0.87013406  0.60604128  1
  Au  Au6  1  0.87011845  0.20105667  0.60649191  1
  Au  Au7  1  0.87013408  0.53474017  0.60604128  1
  Au  Au8  1  0.86842804  0.86842810  0.60778974  1
  Au  Au9  1  0.00271533  0.33299407  0.50346198  1
  Au  Au10  1  0.99904923  0.66788011  0.50338831  1
  Au  Au11  1  0.00034248  0.00034239  0.50329588  1
  Au  Au12  1  0.33482441  0.33482448  0.50329437  1
  Au  Au13  1  0.33043998  0.67062520  0.50231150  1
  Au  Au14  1  0.33299398  0.00271541  0.50346195  1
  Au  Au15  1  0.67062517  0.33044002  0.50231149  1
  Au  Au16  1  0.66698869  0.66698870  0.50293376  1
  Au  Au17  1  0.66788009  0.99904911  0.50338828  1
  Au  Au18  1  0.13333300  0.13333300  0.40000000  1
  Au  Au19  1  0.13333300  0.46666600  0.40000000  1
  Au  Au20  1  0.13333300  0.80000000  0.40000000  1
  Au  Au21  1  0.46666600  0.13333300  0.40000000  1
  Au  Au22  1  0.46666700  0.46666700  0.40000000  1
  Au  Au23  1  0.46666700  0.80000000  0.40000000  1
  Au  Au24  1  0.80000000  0.13333300  0.40000000  1
  Au  Au25  1  0.80000000  0.46666700  0.40000000  1
  Au  Au26  1  0.80000000  0.80000000  0.40000000  1
  N  N27  1  0.52975973  0.52975973  0.72564430  1
  N  N28  1  0.52194004  0.52194001  0.77243987  1
