# generated using pymatgen
data_HAu27
_symmetry_space_group_name_H-M   'P 1'
_cell_length_a   8.57606266
_cell_length_b   8.57606266
_cell_length_c   23.65109797
_cell_angle_alpha   88.12641697
_cell_angle_beta   88.12641697
_cell_angle_gamma   63.40130658
_symmetry_Int_Tables_number   1
_chemical_formula_structural   HAu27
_chemical_formula_sum   'H1 Au27'
_cell_volume   1554.26011481
_cell_formula_units_Z   1
loop_
 _symmetry_equiv_pos_site_id
 _symmetry_equiv_pos_as_xyz
  1  'x, y, z'
loop_
 _atom_site_type_symbol
 _atom_site_label
 _atom_site_symmetry_multiplicity
 _atom_site_fract_x
 _atom_site_fract_y
 _atom_site_fract_z
 _atom_site_occupancy
  Au  Au0  1  0.20442504  0.20442510  0.60823021  1
  Au  Au1  1  0.19925930  0.53900760  0.60724727  1
  Au  Au2  1  0.19782065  0.87515682  0.60664050  1
  Au  Au3  1  0.53900756  0.19925934  0.60724727  1
  Au  Au4  1  0.53602201  0.53602209  0.60917079  1
  Au  Au5  1  0.53292733  0.87377111  0.60729784  1
  Au  Au6  1  0.87515677  0.19782069  0.60664051  1
  Au  Au7  1  0.87377103  0.53292737  0.60729786  1
  Au  Au8  1  0.86811749  0.86811756  0.60722668  1
  Au  Au9  1  0.00073320  0.33357070  0.50376747  1
  Au  Au10  1  0.00110103  0.66825731  0.50316622  1
  Au  Au11  1  0.00052822  0.00052823  0.50251277  1
  Au  Au12  1  0.33333767  0.33333772  0.50420256  1
  Au  Au13  1  0.33821175  0.66416951  0.50506797  1
  Au  Au14  1  0.33357063  0.00073323  0.50376746  1
  Au  Au15  1  0.66416950  0.33821177  0.50506797  1
  Au  Au16  1  0.66736384  0.66736389  0.50487889  1
  Au  Au17  1  0.66825733  0.00110105  0.50316622  1
  Au  Au18  1  0.13333300  0.13333300  0.40000000  1
  Au  Au19  1  0.13333300  0.46666600  0.40000000  1
  Au  Au20  1  0.13333300  0.80000000  0.40000000  1
  Au  Au21  1  0.46666600  0.13333300  0.40000000  1
  Au  Au22  1  0.46666700  0.46666700  0.40000000  1
  Au  Au23  1  0.46666700  0.80000000  0.40000000  1
  Au  Au24  1  0.80000000  0.13333300  0.40000000  1
  Au  Au25  1  0.80000000  0.46666700  0.40000000  1
  Au  Au26  1  0.80000000  0.80000000  0.40000000  1
  H  H27  1  0.53299461  0.53299451  0.67722050  1
