# generated using pymatgen
data_Te16Mo12H
_symmetry_space_group_name_H-M   'P 1'
_cell_length_a   7.04082001
_cell_length_b   7.04195269
_cell_length_c   29.08263700
_cell_angle_alpha   92.42233475
_cell_angle_beta   92.43396473
_cell_angle_gamma   92.45457226
_symmetry_Int_Tables_number   1
_chemical_formula_structural   Te16Mo12H
_chemical_formula_sum   'Te16 Mo12 H1'
_cell_volume   1437.92269216
_cell_formula_units_Z   1
loop_
 _symmetry_equiv_pos_site_id
 _symmetry_equiv_pos_as_xyz
  1  'x, y, z'
loop_
 _atom_site_type_symbol
 _atom_site_label
 _atom_site_symmetry_multiplicity
 _atom_site_fract_x
 _atom_site_fract_y
 _atom_site_fract_z
 _atom_site_occupancy
  Mo  Mo0  1  0.24293014  0.54779158  0.35200926  1
  Mo  Mo1  1  0.24180034  0.53336070  0.59551853  1
  Mo  Mo2  1  0.75599932  0.45747677  0.39035821  1
  Mo  Mo3  1  0.76411837  0.44467737  0.63290503  1
  Mo  Mo4  1  0.41797457  0.24503583  0.38166298  1
  Mo  Mo5  1  0.42956909  0.22809377  0.62368068  1
  Mo  Mo6  1  0.57519081  0.75935339  0.36110417  1
  Mo  Mo7  1  0.58264821  0.75067980  0.60323189  1
  Mo  Mo8  1  0.54335900  0.41937700  0.30833700  1
  Mo  Mo9  1  0.54660415  0.41384037  0.55161736  1
  Mo  Mo10  1  0.45436489  0.58120015  0.43489353  1
  Mo  Mo11  1  0.46550301  0.56713822  0.67753221  1
  Te  Te12  1  0.11458191  0.37616303  0.43157056  1
  Te  Te13  1  0.12053202  0.36722286  0.67490112  1
  Te  Te14  1  0.88219500  0.62512800  0.31051700  1
  Te  Te15  1  0.88651646  0.62055465  0.55372378  1
  Te  Te16  1  0.74986000  0.11788600  0.34077800  1
  Te  Te17  1  0.75367437  0.10888441  0.58104839  1
  Te  Te18  1  0.25074835  0.88440728  0.40351695  1
  Te  Te19  1  0.26036900  0.87030855  0.64947932  1
  Te  Te20  1  0.37496100  0.74994600  0.27852400  1
  Te  Te21  1  0.37074180  0.74310920  0.52264979  1
  Te  Te22  1  0.62403547  0.24976385  0.46339940  1
  Te  Te23  1  0.62920635  0.24450842  0.70675218  1
  Te  Te24  1  0.20510400  0.20534500  0.29972100  1
  Te  Te25  1  0.20989420  0.19691141  0.54282672  1
  Te  Te26  1  0.79196118  0.79382823  0.44283198  1
  Te  Te27  1  0.79431145  0.79091341  0.68405908  1
  H  H28  1  0.45153211  0.63034880  0.73691347  1
