# generated using pymatgen
data_Te16Mo12H
_symmetry_space_group_name_H-M   'P 1'
_cell_length_a   7.04082001
_cell_length_b   7.04195269
_cell_length_c   29.08263700
_cell_angle_alpha   92.42233475
_cell_angle_beta   92.43396473
_cell_angle_gamma   92.45457226
_symmetry_Int_Tables_number   1
_chemical_formula_structural   Te16Mo12H
_chemical_formula_sum   'Te16 Mo12 H1'
_cell_volume   1437.92269216
_cell_formula_units_Z   1
loop_
 _symmetry_equiv_pos_site_id
 _symmetry_equiv_pos_as_xyz
  1  'x, y, z'
loop_
 _atom_site_type_symbol
 _atom_site_label
 _atom_site_symmetry_multiplicity
 _atom_site_fract_x
 _atom_site_fract_y
 _atom_site_fract_z
 _atom_site_occupancy
  Mo  Mo0  1  0.24227760  0.54766789  0.35191167  1
  Mo  Mo1  1  0.24294479  0.54132326  0.59517812  1
  Mo  Mo2  1  0.75769813  0.45868320  0.39026782  1
  Mo  Mo3  1  0.75867866  0.45334874  0.63364481  1
  Mo  Mo4  1  0.41779036  0.24542730  0.38161068  1
  Mo  Mo5  1  0.42031536  0.24054160  0.62456129  1
  Mo  Mo6  1  0.57442150  0.76084391  0.36125097  1
  Mo  Mo7  1  0.58221872  0.75545321  0.60420022  1
  Mo  Mo8  1  0.54335900  0.41937700  0.30833700  1
  Mo  Mo9  1  0.54482106  0.41763658  0.54950297  1
  Mo  Mo10  1  0.45530475  0.58152324  0.43509800  1
  Mo  Mo11  1  0.45032343  0.58211871  0.67488186  1
  Te  Te12  1  0.11526691  0.37783043  0.43180846  1
  Te  Te13  1  0.11867734  0.37171937  0.67585078  1
  Te  Te14  1  0.88219500  0.62512800  0.31051700  1
  Te  Te15  1  0.88524698  0.61993108  0.55378925  1
  Te  Te16  1  0.74986000  0.11788600  0.34077800  1
  Te  Te17  1  0.74943351  0.11648809  0.58188466  1
  Te  Te18  1  0.25043885  0.88477747  0.40332911  1
  Te  Te19  1  0.25014577  0.88087413  0.64773939  1
  Te  Te20  1  0.37496100  0.74994600  0.27852400  1
  Te  Te21  1  0.37749019  0.74858347  0.52207153  1
  Te  Te22  1  0.62618530  0.24919544  0.46299217  1
  Te  Te23  1  0.62981671  0.25055427  0.70598815  1
  Te  Te24  1  0.20510400  0.20534500  0.29972100  1
  Te  Te25  1  0.21257382  0.20078497  0.54213287  1
  Te  Te26  1  0.79261309  0.79493802  0.44290140  1
  Te  Te27  1  0.78323444  0.78999599  0.68838701  1
  H  H28  1  0.51796267  0.46912297  0.73132410  1
