# generated using pymatgen
data_Ag27HO2
_symmetry_space_group_name_H-M   'P 1'
_cell_length_a   8.60496519
_cell_length_b   8.60496881
_cell_length_c   23.47925300
_cell_angle_alpha   90.00483404
_cell_angle_beta   93.49762144
_cell_angle_gamma   119.99565775
_symmetry_Int_Tables_number   1
_chemical_formula_structural   Ag27HO2
_chemical_formula_sum   'Ag27 H1 O2'
_cell_volume   1501.93330901
_cell_formula_units_Z   1
loop_
 _symmetry_equiv_pos_site_id
 _symmetry_equiv_pos_as_xyz
  1  'x, y, z'
loop_
 _atom_site_type_symbol
 _atom_site_label
 _atom_site_symmetry_multiplicity
 _atom_site_fract_x
 _atom_site_fract_y
 _atom_site_fract_z
 _atom_site_occupancy
  Ag  Ag0  1  0.20000000  0.26666700  0.40000000  1
  Ag  Ag1  1  0.20000000  0.60000000  0.40000000  1
  Ag  Ag2  1  0.20000000  0.93333300  0.40000000  1
  Ag  Ag3  1  0.53333300  0.26666700  0.40000000  1
  Ag  Ag4  1  0.53333300  0.60000000  0.40000000  1
  Ag  Ag5  1  0.53333300  0.93333300  0.40000000  1
  Ag  Ag6  1  0.86666700  0.26666700  0.40000000  1
  Ag  Ag7  1  0.86666700  0.60000000  0.40000000  1
  Ag  Ag8  1  0.86666700  0.93333300  0.40000000  1
  Ag  Ag9  1  0.33598326  0.16905555  0.50213118  1
  Ag  Ag10  1  0.33580836  0.50097143  0.50241760  1
  Ag  Ag11  1  0.33511795  0.83508256  0.50173903  1
  Ag  Ag12  1  0.66879568  0.16881545  0.50203683  1
  Ag  Ag13  1  0.66695880  0.50088998  0.50297727  1
  Ag  Ag14  1  0.66888550  0.83500573  0.50180502  1
  Ag  Ag15  1  0.00291511  0.16905627  0.50238887  1
  Ag  Ag16  1  0.00340048  0.50177051  0.50198308  1
  Ag  Ag17  1  0.00251624  0.83496425  0.50141244  1
  Ag  Ag18  1  0.13471786  0.06566806  0.60287317  1
  Ag  Ag19  1  0.13817415  0.40334022  0.60473862  1
  Ag  Ag20  1  0.13805084  0.73599946  0.60359065  1
  Ag  Ag21  1  0.47135236  0.06869832  0.60356073  1
  Ag  Ag22  1  0.47518154  0.40370302  0.60408749  1
  Ag  Ag23  1  0.47198991  0.73888550  0.60284085  1
  Ag  Ag24  1  0.80488454  0.07004815  0.60403651  1
  Ag  Ag25  1  0.80774582  0.40344203  0.60379134  1
  Ag  Ag26  1  0.80607663  0.73792928  0.60373105  1
  O  O27  1  0.38781296  0.35845126  0.69174974  1
  O  O28  1  0.54267141  0.46506178  0.73308790  1
  H  H29  1  0.55172096  0.58387543  0.73233949  1
