# generated using pymatgen
data_Te16Mo12H
_symmetry_space_group_name_H-M   'P 1'
_cell_length_a   7.04082001
_cell_length_b   7.04195269
_cell_length_c   29.08263700
_cell_angle_alpha   92.42233475
_cell_angle_beta   92.43396473
_cell_angle_gamma   92.45457226
_symmetry_Int_Tables_number   1
_chemical_formula_structural   Te16Mo12H
_chemical_formula_sum   'Te16 Mo12 H1'
_cell_volume   1437.92269216
_cell_formula_units_Z   1
loop_
 _symmetry_equiv_pos_site_id
 _symmetry_equiv_pos_as_xyz
  1  'x, y, z'
loop_
 _atom_site_type_symbol
 _atom_site_label
 _atom_site_symmetry_multiplicity
 _atom_site_fract_x
 _atom_site_fract_y
 _atom_site_fract_z
 _atom_site_occupancy
  Mo  Mo0  1  0.24270329  0.54779442  0.35200500  1
  Mo  Mo1  1  0.25300475  0.52455503  0.59619374  1
  Mo  Mo2  1  0.75843987  0.45827276  0.39014953  1
  Mo  Mo3  1  0.76869806  0.43582520  0.63449598  1
  Mo  Mo4  1  0.41792810  0.24463215  0.38153584  1
  Mo  Mo5  1  0.43074758  0.22309249  0.62522928  1
  Mo  Mo6  1  0.57461558  0.76008542  0.36133546  1
  Mo  Mo7  1  0.59226432  0.73888061  0.60525780  1
  Mo  Mo8  1  0.54335900  0.41937700  0.30833700  1
  Mo  Mo9  1  0.55508093  0.40192316  0.55039349  1
  Mo  Mo10  1  0.45583606  0.57999883  0.43504711  1
  Mo  Mo11  1  0.46055436  0.56426528  0.67576318  1
  Te  Te12  1  0.11570907  0.37652239  0.43195319  1
  Te  Te13  1  0.12866967  0.35328984  0.67648163  1
  Te  Te14  1  0.88219500  0.62512800  0.31051700  1
  Te  Te15  1  0.89539726  0.60372550  0.55456985  1
  Te  Te16  1  0.74986000  0.11788600  0.34077800  1
  Te  Te17  1  0.75935631  0.10019959  0.58171549  1
  Te  Te18  1  0.25103294  0.88347763  0.40422372  1
  Te  Te19  1  0.26043644  0.86356348  0.64892088  1
  Te  Te20  1  0.37496100  0.74994600  0.27852400  1
  Te  Te21  1  0.38627824  0.73441765  0.52353847  1
  Te  Te22  1  0.62767159  0.24538734  0.46237243  1
  Te  Te23  1  0.64016401  0.23231038  0.70656691  1
  Te  Te24  1  0.20510400  0.20534500  0.29972100  1
  Te  Te25  1  0.22375905  0.18416337  0.54259738  1
  Te  Te26  1  0.79270118  0.79347406  0.44329881  1
  Te  Te27  1  0.79321230  0.77269161  0.68944341  1
  H  H28  1  0.52724823  0.45218731  0.73217515  1
