# generated using pymatgen
data_HRh27O
_symmetry_space_group_name_H-M   'P 1'
_cell_length_a   8.03675400
_cell_length_b   8.03670000
_cell_length_c   22.73128200
_cell_angle_alpha   89.99972196
_cell_angle_beta   89.99972196
_cell_angle_gamma   89.99991445
_symmetry_Int_Tables_number   1
_chemical_formula_structural   HRh27O
_chemical_formula_sum   'H1 Rh27 O1'
_cell_volume   1468.19033829
_cell_formula_units_Z   1
loop_
 _symmetry_equiv_pos_site_id
 _symmetry_equiv_pos_as_xyz
  1  'x, y, z'
loop_
 _atom_site_type_symbol
 _atom_site_label
 _atom_site_symmetry_multiplicity
 _atom_site_fract_x
 _atom_site_fract_y
 _atom_site_fract_z
 _atom_site_occupancy
  Rh  Rh0  1  0.99999500  0.99999900  0.45676500  1
  Rh  Rh1  1  0.99998600  0.33332500  0.45675900  1
  Rh  Rh2  1  0.99997900  0.66667100  0.45675400  1
  Rh  Rh3  1  0.33332500  0.99999700  0.45676100  1
  Rh  Rh4  1  0.33334000  0.33333100  0.45675900  1
  Rh  Rh5  1  0.33334900  0.66666500  0.45675400  1
  Rh  Rh6  1  0.66666400  0.99999200  0.45674300  1
  Rh  Rh7  1  0.66666200  0.33334600  0.45674700  1
  Rh  Rh8  1  0.66666200  0.66665800  0.45674400  1
  Rh  Rh9  1  0.16666700  0.16666700  0.37500000  1
  Rh  Rh10  1  0.16666700  0.50000000  0.37500000  1
  Rh  Rh11  1  0.16666700  0.83333300  0.37500000  1
  Rh  Rh12  1  0.50000000  0.16666700  0.37500000  1
  Rh  Rh13  1  0.50000000  0.50000000  0.37500000  1
  Rh  Rh14  1  0.50000000  0.83333300  0.37500000  1
  Rh  Rh15  1  0.83333300  0.16666700  0.37500000  1
  Rh  Rh16  1  0.83333300  0.50000000  0.37500000  1
  Rh  Rh17  1  0.83333300  0.83333300  0.37500000  1
  Rh  Rh18  1  0.16588739  0.16588322  0.53808641  1
  Rh  Rh19  1  0.16472611  0.50033648  0.53796181  1
  Rh  Rh20  1  0.16620730  0.83385879  0.53824011  1
  Rh  Rh21  1  0.50034511  0.16470440  0.53795102  1
  Rh  Rh22  1  0.50002429  0.49999901  0.54059972  1
  Rh  Rh23  1  0.50019118  0.83349125  0.53799991  1
  Rh  Rh24  1  0.83384689  0.16620188  0.53823960  1
  Rh  Rh25  1  0.83349578  0.50018150  0.53800367  1
  Rh  Rh26  1  0.83374308  0.83375988  0.53822301  1
  O  O27  1  0.46406808  0.46392106  0.62816792  1
  H  H28  1  0.53957841  0.54116763  0.64831823  1
