# generated using pymatgen
data_H3Au27N
_symmetry_space_group_name_H-M   'P 1'
_cell_length_a   8.57606266
_cell_length_b   8.57606266
_cell_length_c   23.65109797
_cell_angle_alpha   88.12641697
_cell_angle_beta   88.12641697
_cell_angle_gamma   63.40130658
_symmetry_Int_Tables_number   1
_chemical_formula_structural   H3Au27N
_chemical_formula_sum   'H3 Au27 N1'
_cell_volume   1554.26011481
_cell_formula_units_Z   1
loop_
 _symmetry_equiv_pos_site_id
 _symmetry_equiv_pos_as_xyz
  1  'x, y, z'
loop_
 _atom_site_type_symbol
 _atom_site_label
 _atom_site_symmetry_multiplicity
 _atom_site_fract_x
 _atom_site_fract_y
 _atom_site_fract_z
 _atom_site_occupancy
  Au  Au0  1  0.20489334  0.20470728  0.60901489  1
  Au  Au1  1  0.20072893  0.53929445  0.60545997  1
  Au  Au2  1  0.19832316  0.87559990  0.60578592  1
  Au  Au3  1  0.53952345  0.20017485  0.60538945  1
  Au  Au4  1  0.53756225  0.53635415  0.60872029  1
  Au  Au5  1  0.53308569  0.87489704  0.60561363  1
  Au  Au6  1  0.87568079  0.19815852  0.60606346  1
  Au  Au7  1  0.87544214  0.53285343  0.60549717  1
  Au  Au8  1  0.86848541  0.86826372  0.60743494  1
  Au  Au9  1  0.00216222  0.33338796  0.50330397  1
  Au  Au10  1  0.00103978  0.66943698  0.50241713  1
  Au  Au11  1  0.00103310  0.00118364  0.50196958  1
  Au  Au12  1  0.33401645  0.33396418  0.50371551  1
  Au  Au13  1  0.33764693  0.66553068  0.50541697  1
  Au  Au14  1  0.33351948  0.00204422  0.50332145  1
  Au  Au15  1  0.66566306  0.33762584  0.50546342  1
  Au  Au16  1  0.66761459  0.66768856  0.50492372  1
  Au  Au17  1  0.66949286  0.00096232  0.50239042  1
  Au  Au18  1  0.13333300  0.13333300  0.40000000  1
  Au  Au19  1  0.13333300  0.46666600  0.40000000  1
  Au  Au20  1  0.13333300  0.80000000  0.40000000  1
  Au  Au21  1  0.46666600  0.13333300  0.40000000  1
  Au  Au22  1  0.46666700  0.46666700  0.40000000  1
  Au  Au23  1  0.46666700  0.80000000  0.40000000  1
  Au  Au24  1  0.80000000  0.13333300  0.40000000  1
  Au  Au25  1  0.80000000  0.46666700  0.40000000  1
  Au  Au26  1  0.80000000  0.80000000  0.40000000  1
  N  N27  1  0.52686181  0.53087885  0.70578523  1
  H  H28  1  0.61724684  0.56355703  0.72239370  1
  H  H29  1  0.40565552  0.61724704  0.72052526  1
  H  H30  1  0.55136091  0.40866906  0.72096146  1
