# generated using pymatgen
data_HAu27N2
_symmetry_space_group_name_H-M   'P 1'
_cell_length_a   8.57606266
_cell_length_b   8.57606266
_cell_length_c   23.65109797
_cell_angle_alpha   88.12641697
_cell_angle_beta   88.12641697
_cell_angle_gamma   63.40130658
_symmetry_Int_Tables_number   1
_chemical_formula_structural   HAu27N2
_chemical_formula_sum   'H1 Au27 N2'
_cell_volume   1554.26011481
_cell_formula_units_Z   1
loop_
 _symmetry_equiv_pos_site_id
 _symmetry_equiv_pos_as_xyz
  1  'x, y, z'
loop_
 _atom_site_type_symbol
 _atom_site_label
 _atom_site_symmetry_multiplicity
 _atom_site_fract_x
 _atom_site_fract_y
 _atom_site_fract_z
 _atom_site_occupancy
  Au  Au0  1  0.20481950  0.20382616  0.60565126  1
  Au  Au1  1  0.20464061  0.53765719  0.60255732  1
  Au  Au2  1  0.20222606  0.87229274  0.60460683  1
  Au  Au3  1  0.53852566  0.20313677  0.60453735  1
  Au  Au4  1  0.54235454  0.53672284  0.60232402  1
  Au  Au5  1  0.53633219  0.87212041  0.60472487  1
  Au  Au6  1  0.87284068  0.20199374  0.60482467  1
  Au  Au7  1  0.87502313  0.53579759  0.60456761  1
  Au  Au8  1  0.87009991  0.87011085  0.60563723  1
  Au  Au9  1  0.00213927  0.33387271  0.50211346  1
  Au  Au10  1  0.00004655  0.66910059  0.50159465  1
  Au  Au11  1  0.00075584  0.00123629  0.50191819  1
  Au  Au12  1  0.33556254  0.33348103  0.50189300  1
  Au  Au13  1  0.33419168  0.66834444  0.50196377  1
  Au  Au14  1  0.33402086  0.00144340  0.50225570  1
  Au  Au15  1  0.66900706  0.33316007  0.50175959  1
  Au  Au16  1  0.66838015  0.66779686  0.50201845  1
  Au  Au17  1  0.66818523  0.00033283  0.50212242  1
  Au  Au18  1  0.13333300  0.13333300  0.40000000  1
  Au  Au19  1  0.13333300  0.46666600  0.40000000  1
  Au  Au20  1  0.13333300  0.80000000  0.40000000  1
  Au  Au21  1  0.46666600  0.13333300  0.40000000  1
  Au  Au22  1  0.46666700  0.46666700  0.40000000  1
  Au  Au23  1  0.46666700  0.80000000  0.40000000  1
  Au  Au24  1  0.80000000  0.13333300  0.40000000  1
  Au  Au25  1  0.80000000  0.46666700  0.40000000  1
  Au  Au26  1  0.80000000  0.80000000  0.40000000  1
  N  N27  1  0.46456802  0.52834916  0.71446553  1
  N  N28  1  0.54560306  0.52544480  0.75034949  1
  H  H29  1  0.63303628  0.52272031  0.78295762  1
