# generated using pymatgen
data_HRh27
_symmetry_space_group_name_H-M   'P 1'
_cell_length_a   8.03675400
_cell_length_b   8.03670000
_cell_length_c   22.73128200
_cell_angle_alpha   89.99972196
_cell_angle_beta   89.99972196
_cell_angle_gamma   89.99991445
_symmetry_Int_Tables_number   1
_chemical_formula_structural   HRh27
_chemical_formula_sum   'H1 Rh27'
_cell_volume   1468.19033829
_cell_formula_units_Z   1
loop_
 _symmetry_equiv_pos_site_id
 _symmetry_equiv_pos_as_xyz
  1  'x, y, z'
loop_
 _atom_site_type_symbol
 _atom_site_label
 _atom_site_symmetry_multiplicity
 _atom_site_fract_x
 _atom_site_fract_y
 _atom_site_fract_z
 _atom_site_occupancy
  Rh  Rh0  1  0.99999600  0.99999600  0.45637900  1
  Rh  Rh1  1  0.99999600  0.33333000  0.45637800  1
  Rh  Rh2  1  0.99999600  0.66666300  0.45637800  1
  Rh  Rh3  1  0.33333000  0.99999600  0.45637800  1
  Rh  Rh4  1  0.33333000  0.33333000  0.45637800  1
  Rh  Rh5  1  0.33333000  0.66666300  0.45637700  1
  Rh  Rh6  1  0.66666300  0.99999600  0.45637800  1
  Rh  Rh7  1  0.66666300  0.33333000  0.45637700  1
  Rh  Rh8  1  0.66666300  0.66666300  0.45637700  1
  Rh  Rh9  1  0.16666700  0.16666700  0.37500000  1
  Rh  Rh10  1  0.16666700  0.50000000  0.37500000  1
  Rh  Rh11  1  0.16666700  0.83333300  0.37500000  1
  Rh  Rh12  1  0.50000000  0.16666700  0.37500000  1
  Rh  Rh13  1  0.50000000  0.50000000  0.37500000  1
  Rh  Rh14  1  0.50000000  0.83333300  0.37500000  1
  Rh  Rh15  1  0.83333300  0.16666700  0.37500000  1
  Rh  Rh16  1  0.83333300  0.50000000  0.37500000  1
  Rh  Rh17  1  0.83333300  0.83333300  0.37500000  1
  Rh  Rh18  1  0.16666115  0.16666120  0.53775137  1
  Rh  Rh19  1  0.16666238  0.49971898  0.53773264  1
  Rh  Rh20  1  0.16666279  0.83359883  0.53773257  1
  Rh  Rh21  1  0.49971892  0.16666240  0.53773261  1
  Rh  Rh22  1  0.49947096  0.49947082  0.53847016  1
  Rh  Rh23  1  0.49947261  0.83385197  0.53846961  1
  Rh  Rh24  1  0.83359891  0.16666281  0.53773258  1
  Rh  Rh25  1  0.83385186  0.49947249  0.53846960  1
  Rh  Rh26  1  0.83385129  0.83385140  0.53846912  1
  H  H27  1  0.66663788  0.66663831  0.56443960  1
