# generated using pymatgen
data_HRh27O
_symmetry_space_group_name_H-M   'P 1'
_cell_length_a   8.03675400
_cell_length_b   8.03670000
_cell_length_c   22.73128200
_cell_angle_alpha   89.99972196
_cell_angle_beta   89.99972196
_cell_angle_gamma   89.99991445
_symmetry_Int_Tables_number   1
_chemical_formula_structural   HRh27O
_chemical_formula_sum   'H1 Rh27 O1'
_cell_volume   1468.19033829
_cell_formula_units_Z   1
loop_
 _symmetry_equiv_pos_site_id
 _symmetry_equiv_pos_as_xyz
  1  'x, y, z'
loop_
 _atom_site_type_symbol
 _atom_site_label
 _atom_site_symmetry_multiplicity
 _atom_site_fract_x
 _atom_site_fract_y
 _atom_site_fract_z
 _atom_site_occupancy
  Rh  Rh0  1  0.99999900  0.99999800  0.45662600  1
  Rh  Rh1  1  0.99999800  0.33332900  0.45662400  1
  Rh  Rh2  1  0.99999800  0.66666800  0.45662400  1
  Rh  Rh3  1  0.33332900  0.99999800  0.45662400  1
  Rh  Rh4  1  0.33333000  0.33333000  0.45662200  1
  Rh  Rh5  1  0.33333000  0.66666700  0.45662200  1
  Rh  Rh6  1  0.66666700  0.99999800  0.45662400  1
  Rh  Rh7  1  0.66666600  0.33333000  0.45662200  1
  Rh  Rh8  1  0.66666700  0.66666600  0.45662200  1
  Rh  Rh9  1  0.16666700  0.16666700  0.37500000  1
  Rh  Rh10  1  0.16666700  0.50000000  0.37500000  1
  Rh  Rh11  1  0.16666700  0.83333300  0.37500000  1
  Rh  Rh12  1  0.50000000  0.16666700  0.37500000  1
  Rh  Rh13  1  0.50000000  0.50000000  0.37500000  1
  Rh  Rh14  1  0.50000000  0.83333300  0.37500000  1
  Rh  Rh15  1  0.83333300  0.16666700  0.37500000  1
  Rh  Rh16  1  0.83333300  0.50000000  0.37500000  1
  Rh  Rh17  1  0.83333300  0.83333300  0.37500000  1
  Rh  Rh18  1  0.16571662  0.16568107  0.53771146  1
  Rh  Rh19  1  0.16480948  0.50044247  0.53811143  1
  Rh  Rh20  1  0.16610100  0.83386453  0.53796306  1
  Rh  Rh21  1  0.50047883  0.16467872  0.53809992  1
  Rh  Rh22  1  0.50086830  0.50082783  0.53878925  1
  Rh  Rh23  1  0.50017277  0.83330350  0.53784125  1
  Rh  Rh24  1  0.83389090  0.16607289  0.53796100  1
  Rh  Rh25  1  0.83340789  0.50015193  0.53785217  1
  Rh  Rh26  1  0.83373264  0.83371729  0.53802241  1
  O  O27  1  0.45566370  0.45480920  0.62272575  1
  H  H28  1  0.52704210  0.52889251  0.64630192  1
