# generated using pymatgen
data_Ag27HO2
_symmetry_space_group_name_H-M   'P 1'
_cell_length_a   8.60496519
_cell_length_b   8.60496881
_cell_length_c   23.47925300
_cell_angle_alpha   90.00483404
_cell_angle_beta   93.49762144
_cell_angle_gamma   119.99565775
_symmetry_Int_Tables_number   1
_chemical_formula_structural   Ag27HO2
_chemical_formula_sum   'Ag27 H1 O2'
_cell_volume   1501.93330901
_cell_formula_units_Z   1
loop_
 _symmetry_equiv_pos_site_id
 _symmetry_equiv_pos_as_xyz
  1  'x, y, z'
loop_
 _atom_site_type_symbol
 _atom_site_label
 _atom_site_symmetry_multiplicity
 _atom_site_fract_x
 _atom_site_fract_y
 _atom_site_fract_z
 _atom_site_occupancy
  Ag  Ag0  1  0.20000000  0.26666700  0.40000000  1
  Ag  Ag1  1  0.20000000  0.60000000  0.40000000  1
  Ag  Ag2  1  0.20000000  0.93333300  0.40000000  1
  Ag  Ag3  1  0.53333300  0.26666700  0.40000000  1
  Ag  Ag4  1  0.53333300  0.60000000  0.40000000  1
  Ag  Ag5  1  0.53333300  0.93333300  0.40000000  1
  Ag  Ag6  1  0.86666700  0.26666700  0.40000000  1
  Ag  Ag7  1  0.86666700  0.60000000  0.40000000  1
  Ag  Ag8  1  0.86666700  0.93333300  0.40000000  1
  Ag  Ag9  1  0.33341850  0.16901785  0.50016094  1
  Ag  Ag10  1  0.33316048  0.50291740  0.50034167  1
  Ag  Ag11  1  0.33331648  0.83589749  0.50087108  1
  Ag  Ag12  1  0.66718742  0.16954345  0.50088011  1
  Ag  Ag13  1  0.66668427  0.50237829  0.50020689  1
  Ag  Ag14  1  0.66729112  0.83644577  0.50084566  1
  Ag  Ag15  1  0.00253381  0.17074002  0.50161632  1
  Ag  Ag16  1  0.00108085  0.50287946  0.50095555  1
  Ag  Ag17  1  0.00121164  0.83711558  0.50112642  1
  Ag  Ag18  1  0.13538312  0.07103317  0.60274158  1
  Ag  Ag19  1  0.13478326  0.40759096  0.60273431  1
  Ag  Ag20  1  0.13568229  0.73924205  0.60212992  1
  Ag  Ag21  1  0.46917109  0.07068954  0.60133101  1
  Ag  Ag22  1  0.47541718  0.40830289  0.59813893  1
  Ag  Ag23  1  0.46858451  0.73823966  0.60173392  1
  Ag  Ag24  1  0.80318729  0.07264723  0.60197874  1
  Ag  Ag25  1  0.80372977  0.40564723  0.60187869  1
  Ag  Ag26  1  0.80369665  0.74019152  0.60183523  1
  O  O27  1  0.36848623  0.36367798  0.68250405  1
  O  O28  1  0.50962913  0.41247036  0.72420783  1
  H  H29  1  0.49297375  0.48979779  0.75212301  1
