# generated using pymatgen
data_Te16Mo12CO2
_symmetry_space_group_name_H-M   'P 1'
_cell_length_a   7.04082001
_cell_length_b   7.04195269
_cell_length_c   29.08263700
_cell_angle_alpha   92.42233475
_cell_angle_beta   92.43396473
_cell_angle_gamma   92.45457226
_symmetry_Int_Tables_number   1
_chemical_formula_structural   Te16Mo12CO2
_chemical_formula_sum   'Te16 Mo12 C1 O2'
_cell_volume   1437.92269216
_cell_formula_units_Z   1
loop_
 _symmetry_equiv_pos_site_id
 _symmetry_equiv_pos_as_xyz
  1  'x, y, z'
loop_
 _atom_site_type_symbol
 _atom_site_label
 _atom_site_symmetry_multiplicity
 _atom_site_fract_x
 _atom_site_fract_y
 _atom_site_fract_z
 _atom_site_occupancy
  Mo  Mo0  1  0.24300348  0.54776885  0.35197724  1
  Mo  Mo1  1  0.25085422  0.54601660  0.59519830  1
  Mo  Mo2  1  0.75727697  0.45793639  0.39021085  1
  Mo  Mo3  1  0.76768659  0.45628814  0.63152543  1
  Mo  Mo4  1  0.41820124  0.24492848  0.38155773  1
  Mo  Mo5  1  0.43224243  0.24247685  0.62377132  1
  Mo  Mo6  1  0.57542842  0.76000987  0.36097738  1
  Mo  Mo7  1  0.58880610  0.75840548  0.60179006  1
  Mo  Mo8  1  0.54335900  0.41937700  0.30833700  1
  Mo  Mo9  1  0.54918191  0.42189632  0.54969268  1
  Mo  Mo10  1  0.45574613  0.58155820  0.43492243  1
  Mo  Mo11  1  0.46747214  0.58234624  0.67605312  1
  Te  Te12  1  0.11590115  0.37650542  0.43176504  1
  Te  Te13  1  0.12633350  0.37213133  0.67469257  1
  Te  Te14  1  0.88219500  0.62512800  0.31051700  1
  Te  Te15  1  0.89166330  0.62560971  0.55204585  1
  Te  Te16  1  0.74986000  0.11788600  0.34077800  1
  Te  Te17  1  0.75515788  0.11864863  0.58062482  1
  Te  Te18  1  0.25088365  0.88437133  0.40326628  1
  Te  Te19  1  0.26211840  0.88226763  0.64744304  1
  Te  Te20  1  0.37496100  0.74994600  0.27852400  1
  Te  Te21  1  0.37624585  0.75197031  0.52131620  1
  Te  Te22  1  0.62623301  0.24982368  0.46302428  1
  Te  Te23  1  0.63826528  0.26111226  0.70595832  1
  Te  Te24  1  0.20510400  0.20534500  0.29972100  1
  Te  Te25  1  0.21331420  0.20651076  0.54281500  1
  Te  Te26  1  0.79317021  0.79540452  0.44227985  1
  Te  Te27  1  0.80720502  0.79891830  0.68180854  1
  C  C28  1  0.42519662  0.53666109  0.76481939  1
  O  O29  1  0.43935288  0.69668085  0.75126998  1
  O  O30  1  0.39393147  0.42187012  0.79245832  1
