# generated using pymatgen
data_Au27CO
_symmetry_space_group_name_H-M   'P 1'
_cell_length_a   8.57606266
_cell_length_b   8.57606266
_cell_length_c   23.65109797
_cell_angle_alpha   88.12641697
_cell_angle_beta   88.12641697
_cell_angle_gamma   63.40130658
_symmetry_Int_Tables_number   1
_chemical_formula_structural   Au27CO
_chemical_formula_sum   'Au27 C1 O1'
_cell_volume   1554.26011481
_cell_formula_units_Z   1
loop_
 _symmetry_equiv_pos_site_id
 _symmetry_equiv_pos_as_xyz
  1  'x, y, z'
loop_
 _atom_site_type_symbol
 _atom_site_label
 _atom_site_symmetry_multiplicity
 _atom_site_fract_x
 _atom_site_fract_y
 _atom_site_fract_z
 _atom_site_occupancy
  Au  Au0  1  0.20725853  0.20728791  0.60719945  1
  Au  Au1  1  0.20153255  0.54243038  0.60562800  1
  Au  Au2  1  0.19988755  0.87923396  0.60578054  1
  Au  Au3  1  0.54233142  0.20155288  0.60565182  1
  Au  Au4  1  0.53683764  0.53620916  0.61158747  1
  Au  Au5  1  0.53537025  0.87870648  0.60520077  1
  Au  Au6  1  0.87900614  0.20010975  0.60584229  1
  Au  Au7  1  0.87863707  0.53542115  0.60523230  1
  Au  Au8  1  0.87066962  0.87067236  0.60672444  1
  Au  Au9  1  0.00066156  0.33518154  0.50268864  1
  Au  Au10  1  0.00240437  0.66958910  0.50182952  1
  Au  Au11  1  0.00168058  0.00181086  0.50159579  1
  Au  Au12  1  0.33404707  0.33407151  0.50331483  1
  Au  Au13  1  0.33923194  0.66518355  0.50617917  1
  Au  Au14  1  0.33513259  0.00065567  0.50269007  1
  Au  Au15  1  0.66510342  0.33931010  0.50616583  1
  Au  Au16  1  0.66809709  0.66818366  0.50514503  1
  Au  Au17  1  0.66956028  0.00248438  0.50182626  1
  Au  Au18  1  0.13333300  0.13333300  0.40000000  1
  Au  Au19  1  0.13333300  0.46666600  0.40000000  1
  Au  Au20  1  0.13333300  0.80000000  0.40000000  1
  Au  Au21  1  0.46666600  0.13333300  0.40000000  1
  Au  Au22  1  0.46666700  0.46666700  0.40000000  1
  Au  Au23  1  0.46666700  0.80000000  0.40000000  1
  Au  Au24  1  0.80000000  0.13333300  0.40000000  1
  Au  Au25  1  0.80000000  0.46666700  0.40000000  1
  Au  Au26  1  0.80000000  0.80000000  0.40000000  1
  O  O27  1  0.51443171  0.50564165  0.74455865  1
  C  C28  1  0.53637046  0.53574057  0.69782553  1
