# generated using pymatgen
data_Au27O
_symmetry_space_group_name_H-M   'P 1'
_cell_length_a   8.57606266
_cell_length_b   8.57606266
_cell_length_c   23.65109797
_cell_angle_alpha   88.12641697
_cell_angle_beta   88.12641697
_cell_angle_gamma   63.40130658
_symmetry_Int_Tables_number   1
_chemical_formula_structural   Au27O
_chemical_formula_sum   'Au27 O1'
_cell_volume   1554.26011481
_cell_formula_units_Z   1
loop_
 _symmetry_equiv_pos_site_id
 _symmetry_equiv_pos_as_xyz
  1  'x, y, z'
loop_
 _atom_site_type_symbol
 _atom_site_label
 _atom_site_symmetry_multiplicity
 _atom_site_fract_x
 _atom_site_fract_y
 _atom_site_fract_z
 _atom_site_occupancy
  Au  Au0  1  0.20408564  0.20408570  0.60554752  1
  Au  Au1  1  0.19745038  0.53912079  0.60477482  1
  Au  Au2  1  0.19570381  0.87563412  0.60454155  1
  Au  Au3  1  0.53912070  0.19745043  0.60477486  1
  Au  Au4  1  0.53475031  0.53475038  0.61009309  1
  Au  Au5  1  0.53090508  0.87418748  0.60483310  1
  Au  Au6  1  0.87563392  0.19570397  0.60454155  1
  Au  Au7  1  0.87418738  0.53090522  0.60483312  1
  Au  Au8  1  0.86669766  0.86669774  0.60493157  1
  Au  Au9  1  0.99920685  0.33370479  0.50239456  1
  Au  Au10  1  0.00151901  0.66800786  0.50187555  1
  Au  Au11  1  0.00029632  0.00029637  0.50136688  1
  Au  Au12  1  0.33270764  0.33270772  0.50326913  1
  Au  Au13  1  0.33941619  0.66243280  0.50526022  1
  Au  Au14  1  0.33370478  0.99920686  0.50239457  1
  Au  Au15  1  0.66243267  0.33941633  0.50526019  1
  Au  Au16  1  0.66745409  0.66745415  0.50452948  1
  Au  Au17  1  0.66800777  0.00151905  0.50187553  1
  Au  Au18  1  0.13333300  0.13333300  0.40000000  1
  Au  Au19  1  0.13333300  0.46666600  0.40000000  1
  Au  Au20  1  0.13333300  0.80000000  0.40000000  1
  Au  Au21  1  0.46666600  0.13333300  0.40000000  1
  Au  Au22  1  0.46666700  0.46666700  0.40000000  1
  Au  Au23  1  0.46666700  0.80000000  0.40000000  1
  Au  Au24  1  0.80000000  0.13333300  0.40000000  1
  Au  Au25  1  0.80000000  0.46666700  0.40000000  1
  Au  Au26  1  0.80000000  0.80000000  0.40000000  1
  O  O27  1  0.53113267  0.53113271  0.69595763  1
