# generated using pymatgen
data_Te16Mo12CO
_symmetry_space_group_name_H-M   'P 1'
_cell_length_a   7.04082001
_cell_length_b   7.04195269
_cell_length_c   29.08263700
_cell_angle_alpha   92.42233475
_cell_angle_beta   92.43396473
_cell_angle_gamma   92.45457226
_symmetry_Int_Tables_number   1
_chemical_formula_structural   Te16Mo12CO
_chemical_formula_sum   'Te16 Mo12 C1 O1'
_cell_volume   1437.92269216
_cell_formula_units_Z   1
loop_
 _symmetry_equiv_pos_site_id
 _symmetry_equiv_pos_as_xyz
  1  'x, y, z'
loop_
 _atom_site_type_symbol
 _atom_site_label
 _atom_site_symmetry_multiplicity
 _atom_site_fract_x
 _atom_site_fract_y
 _atom_site_fract_z
 _atom_site_occupancy
  Mo  Mo0  1  0.24397112  0.54854710  0.35213960  1
  Mo  Mo1  1  0.24493574  0.53444808  0.59542233  1
  Mo  Mo2  1  0.75647359  0.45681235  0.39037028  1
  Mo  Mo3  1  0.76312680  0.44253754  0.63199210  1
  Mo  Mo4  1  0.41802527  0.24499264  0.38160420  1
  Mo  Mo5  1  0.42965816  0.22715381  0.62324494  1
  Mo  Mo6  1  0.57666210  0.75801312  0.36115400  1
  Mo  Mo7  1  0.58378712  0.74849516  0.60343553  1
  Mo  Mo8  1  0.54335900  0.41937700  0.30833700  1
  Mo  Mo9  1  0.54613269  0.41500910  0.55102805  1
  Mo  Mo10  1  0.45507073  0.58029092  0.43516778  1
  Mo  Mo11  1  0.45824681  0.56666822  0.67923188  1
  Te  Te12  1  0.11557709  0.37631383  0.43163922  1
  Te  Te13  1  0.12024092  0.35552043  0.67410730  1
  Te  Te14  1  0.88219500  0.62512800  0.31051700  1
  Te  Te15  1  0.88735229  0.61885565  0.55346172  1
  Te  Te16  1  0.74986000  0.11788600  0.34077800  1
  Te  Te17  1  0.75113438  0.10676942  0.58004891  1
  Te  Te18  1  0.25168051  0.88399138  0.40379961  1
  Te  Te19  1  0.25868236  0.86858034  0.64897700  1
  Te  Te20  1  0.37496100  0.74994600  0.27852400  1
  Te  Te21  1  0.37214917  0.74401001  0.52240315  1
  Te  Te22  1  0.62561172  0.24862988  0.46314904  1
  Te  Te23  1  0.63002424  0.24490335  0.70640543  1
  Te  Te24  1  0.20510400  0.20534500  0.29972100  1
  Te  Te25  1  0.20985885  0.19760165  0.54254450  1
  Te  Te26  1  0.79188637  0.79327868  0.44304274  1
  Te  Te27  1  0.79180017  0.78254348  0.68548938  1
  O  O28  1  0.41948422  0.64723912  0.78636702  1
  C  C29  1  0.43247122  0.62189012  0.74642671  1
