# generated using pymatgen
data_Te16Mo12CO
_symmetry_space_group_name_H-M   'P 1'
_cell_length_a   7.04082001
_cell_length_b   7.04195269
_cell_length_c   29.08263700
_cell_angle_alpha   92.42233475
_cell_angle_beta   92.43396473
_cell_angle_gamma   92.45457226
_symmetry_Int_Tables_number   1
_chemical_formula_structural   Te16Mo12CO
_chemical_formula_sum   'Te16 Mo12 C1 O1'
_cell_volume   1437.92269216
_cell_formula_units_Z   1
loop_
 _symmetry_equiv_pos_site_id
 _symmetry_equiv_pos_as_xyz
  1  'x, y, z'
loop_
 _atom_site_type_symbol
 _atom_site_label
 _atom_site_symmetry_multiplicity
 _atom_site_fract_x
 _atom_site_fract_y
 _atom_site_fract_z
 _atom_site_occupancy
  Mo  Mo0  1  0.24291875  0.54810423  0.35204267  1
  Mo  Mo1  1  0.24475016  0.53376923  0.59564126  1
  Mo  Mo2  1  0.75713744  0.45786690  0.39032650  1
  Mo  Mo3  1  0.76493509  0.44265142  0.63190744  1
  Mo  Mo4  1  0.41811101  0.24504921  0.38161809  1
  Mo  Mo5  1  0.43158922  0.22559379  0.62336028  1
  Mo  Mo6  1  0.57496090  0.75957242  0.36110922  1
  Mo  Mo7  1  0.58388177  0.74805182  0.60340770  1
  Mo  Mo8  1  0.54335900  0.41937700  0.30833700  1
  Mo  Mo9  1  0.54665054  0.41447367  0.55131469  1
  Mo  Mo10  1  0.45467063  0.58087934  0.43485892  1
  Mo  Mo11  1  0.46120868  0.56482940  0.67914667  1
  Te  Te12  1  0.11535379  0.37571301  0.43165755  1
  Te  Te13  1  0.12084920  0.35657895  0.67425434  1
  Te  Te14  1  0.88219500  0.62512800  0.31051700  1
  Te  Te15  1  0.88785630  0.61944380  0.55342725  1
  Te  Te16  1  0.74986000  0.11788600  0.34077800  1
  Te  Te17  1  0.75196308  0.10626003  0.57995081  1
  Te  Te18  1  0.25083834  0.88445290  0.40367804  1
  Te  Te19  1  0.26054736  0.86784609  0.64967157  1
  Te  Te20  1  0.37496100  0.74994600  0.27852400  1
  Te  Te21  1  0.37152988  0.74289607  0.52249591  1
  Te  Te22  1  0.62609618  0.24968832  0.46309470  1
  Te  Te23  1  0.63136967  0.24344590  0.70631763  1
  Te  Te24  1  0.20510400  0.20534500  0.29972100  1
  Te  Te25  1  0.20984848  0.19702437  0.54296296  1
  Te  Te26  1  0.79198555  0.79449431  0.44268517  1
  Te  Te27  1  0.79271538  0.78308020  0.68524840  1
  O  O28  1  0.42449595  0.64580586  0.78677757  1
  C  C29  1  0.43685627  0.62053074  0.74708387  1
