# generated using pymatgen
data_HPt27O2
_symmetry_space_group_name_H-M   'P 1'
_cell_length_a   8.30585400
_cell_length_b   8.30548202
_cell_length_c   23.49208800
_cell_angle_alpha   89.99751652
_cell_angle_beta   89.99900665
_cell_angle_gamma   89.99635752
_symmetry_Int_Tables_number   1
_chemical_formula_structural   HPt27O2
_chemical_formula_sum   'H1 Pt27 O2'
_cell_volume   1620.58103859
_cell_formula_units_Z   1
loop_
 _symmetry_equiv_pos_site_id
 _symmetry_equiv_pos_as_xyz
  1  'x, y, z'
loop_
 _atom_site_type_symbol
 _atom_site_label
 _atom_site_symmetry_multiplicity
 _atom_site_fract_x
 _atom_site_fract_y
 _atom_site_fract_z
 _atom_site_occupancy
  Pt  Pt0  1  0.00000000  0.00000000  0.45833200  1
  Pt  Pt1  1  0.00000000  0.33333400  0.45833200  1
  Pt  Pt2  1  0.00000000  0.66666700  0.45833200  1
  Pt  Pt3  1  0.33333400  0.00000000  0.45833200  1
  Pt  Pt4  1  0.33333400  0.33333400  0.45833200  1
  Pt  Pt5  1  0.33333400  0.66666700  0.45833200  1
  Pt  Pt6  1  0.66666700  0.00000000  0.45833200  1
  Pt  Pt7  1  0.66666700  0.33333400  0.45833200  1
  Pt  Pt8  1  0.66666700  0.66666700  0.45833200  1
  Pt  Pt9  1  0.99753271  0.99933761  0.62356979  1
  Pt  Pt10  1  0.99757673  0.33402295  0.62371050  1
  Pt  Pt11  1  0.99976383  0.66657859  0.62491213  1
  Pt  Pt12  1  0.33332816  0.98961016  0.62813763  1
  Pt  Pt13  1  0.33335571  0.34381823  0.62848385  1
  Pt  Pt14  1  0.33333813  0.66653060  0.62617681  1
  Pt  Pt15  1  0.66911755  0.99933761  0.62356494  1
  Pt  Pt16  1  0.66906982  0.33403144  0.62371710  1
  Pt  Pt17  1  0.66686489  0.66657147  0.62491985  1
  Pt  Pt18  1  0.16666400  0.16666100  0.54157000  1
  Pt  Pt19  1  0.16666400  0.49999500  0.54157000  1
  Pt  Pt20  1  0.16666400  0.83332300  0.54157000  1
  Pt  Pt21  1  0.49999700  0.16666100  0.54157100  1
  Pt  Pt22  1  0.49999700  0.49999500  0.54157000  1
  Pt  Pt23  1  0.49999700  0.83332300  0.54157000  1
  Pt  Pt24  1  0.83333000  0.16666100  0.54157000  1
  Pt  Pt25  1  0.83333000  0.49999500  0.54157000  1
  Pt  Pt26  1  0.83333000  0.83332300  0.54157000  1
  O  O27  1  0.33334911  0.16633912  0.68431870  1
  O  O28  1  0.33443777  0.48852409  0.78782297  1
  H  H29  1  0.33847698  0.49112122  0.74611111  1
