# generated using pymatgen
data_HAu27O2
_symmetry_space_group_name_H-M   'P 1'
_cell_length_a   8.57606266
_cell_length_b   8.57606266
_cell_length_c   23.65109797
_cell_angle_alpha   88.12641697
_cell_angle_beta   88.12641697
_cell_angle_gamma   63.40130658
_symmetry_Int_Tables_number   1
_chemical_formula_structural   HAu27O2
_chemical_formula_sum   'H1 Au27 O2'
_cell_volume   1554.26011481
_cell_formula_units_Z   1
loop_
 _symmetry_equiv_pos_site_id
 _symmetry_equiv_pos_as_xyz
  1  'x, y, z'
loop_
 _atom_site_type_symbol
 _atom_site_label
 _atom_site_symmetry_multiplicity
 _atom_site_fract_x
 _atom_site_fract_y
 _atom_site_fract_z
 _atom_site_occupancy
  Au  Au0  1  0.20637818  0.21035826  0.60236421  1
  Au  Au1  1  0.19804431  0.54538632  0.60291267  1
  Au  Au2  1  0.20073314  0.87911856  0.60291588  1
  Au  Au3  1  0.54036066  0.20772992  0.60114830  1
  Au  Au4  1  0.53232691  0.54671359  0.60237813  1
  Au  Au5  1  0.53495693  0.88018539  0.60197230  1
  Au  Au6  1  0.87815365  0.20259721  0.60078164  1
  Au  Au7  1  0.87153386  0.53990078  0.60234139  1
  Au  Au8  1  0.86977650  0.87420889  0.60215947  1
  Au  Au9  1  0.00158053  0.33808521  0.50095363  1
  Au  Au10  1  0.00313608  0.67134658  0.50067424  1
  Au  Au11  1  0.00391781  0.00277421  0.50011291  1
  Au  Au12  1  0.33461904  0.33802644  0.50125375  1
  Au  Au13  1  0.33929480  0.66842625  0.50242937  1
  Au  Au14  1  0.33562383  0.00406041  0.50084927  1
  Au  Au15  1  0.66779407  0.33941397  0.50129354  1
  Au  Au16  1  0.66975118  0.67123274  0.50169344  1
  Au  Au17  1  0.67021499  0.00441839  0.50046282  1
  Au  Au18  1  0.13333300  0.13333300  0.40000000  1
  Au  Au19  1  0.13333300  0.46666600  0.40000000  1
  Au  Au20  1  0.13333300  0.80000000  0.40000000  1
  Au  Au21  1  0.46666600  0.13333300  0.40000000  1
  Au  Au22  1  0.46666700  0.46666700  0.40000000  1
  Au  Au23  1  0.46666700  0.80000000  0.40000000  1
  Au  Au24  1  0.80000000  0.13333300  0.40000000  1
  Au  Au25  1  0.80000000  0.46666700  0.40000000  1
  Au  Au26  1  0.80000000  0.80000000  0.40000000  1
  O  O27  1  0.59033351  0.49327846  0.69292186  1
  O  O28  1  0.44594896  0.58964366  0.72551483  1
  H  H29  1  0.49015890  0.64419853  0.75385695  1
