# generated using pymatgen
data_Ag27HCO2
_symmetry_space_group_name_H-M   'P 1'
_cell_length_a   8.60496519
_cell_length_b   8.60496881
_cell_length_c   23.47925300
_cell_angle_alpha   90.00483404
_cell_angle_beta   93.49762144
_cell_angle_gamma   119.99565775
_symmetry_Int_Tables_number   1
_chemical_formula_structural   Ag27HCO2
_chemical_formula_sum   'Ag27 H1 C1 O2'
_cell_volume   1501.93330901
_cell_formula_units_Z   1
loop_
 _symmetry_equiv_pos_site_id
 _symmetry_equiv_pos_as_xyz
  1  'x, y, z'
loop_
 _atom_site_type_symbol
 _atom_site_label
 _atom_site_symmetry_multiplicity
 _atom_site_fract_x
 _atom_site_fract_y
 _atom_site_fract_z
 _atom_site_occupancy
  Ag  Ag0  1  0.20000000  0.26666700  0.40000000  1
  Ag  Ag1  1  0.20000000  0.60000000  0.40000000  1
  Ag  Ag2  1  0.20000000  0.93333300  0.40000000  1
  Ag  Ag3  1  0.53333300  0.26666700  0.40000000  1
  Ag  Ag4  1  0.53333300  0.60000000  0.40000000  1
  Ag  Ag5  1  0.53333300  0.93333300  0.40000000  1
  Ag  Ag6  1  0.86666700  0.26666700  0.40000000  1
  Ag  Ag7  1  0.86666700  0.60000000  0.40000000  1
  Ag  Ag8  1  0.86666700  0.93333300  0.40000000  1
  Ag  Ag9  1  0.33400531  0.16734619  0.50191682  1
  Ag  Ag10  1  0.33434839  0.49962391  0.50226307  1
  Ag  Ag11  1  0.33308060  0.83326972  0.50190986  1
  Ag  Ag12  1  0.66702264  0.16699496  0.50215493  1
  Ag  Ag13  1  0.66561715  0.49938020  0.50243363  1
  Ag  Ag14  1  0.66697288  0.83319821  0.50220958  1
  Ag  Ag15  1  0.00071983  0.16700234  0.50215174  1
  Ag  Ag16  1  0.00052561  0.50047431  0.50185593  1
  Ag  Ag17  1  0.00074540  0.83327848  0.50185183  1
  Ag  Ag18  1  0.13053522  0.06387396  0.60317407  1
  Ag  Ag19  1  0.13212257  0.40025287  0.60350011  1
  Ag  Ag20  1  0.13399244  0.73328622  0.60418566  1
  Ag  Ag21  1  0.46786039  0.06437762  0.60331874  1
  Ag  Ag22  1  0.46600360  0.39779670  0.60383832  1
  Ag  Ag23  1  0.46732164  0.73600793  0.60309756  1
  Ag  Ag24  1  0.80090353  0.06714761  0.60428939  1
  Ag  Ag25  1  0.80226980  0.40031118  0.60364869  1
  Ag  Ag26  1  0.80277499  0.73554554  0.60319936  1
  C  C27  1  0.47447566  0.40728572  0.69572593  1
  O  O28  1  0.54542274  0.54582507  0.72633486  1
  O  O29  1  0.39629038  0.24546949  0.72149006  1
  H  H30  1  0.41326255  0.27024182  0.76362238  1
