# generated using pymatgen
data_HPt27O2
_symmetry_space_group_name_H-M   'P 1'
_cell_length_a   8.30585400
_cell_length_b   8.30548202
_cell_length_c   23.49208800
_cell_angle_alpha   89.99751652
_cell_angle_beta   89.99900665
_cell_angle_gamma   89.99635752
_symmetry_Int_Tables_number   1
_chemical_formula_structural   HPt27O2
_chemical_formula_sum   'H1 Pt27 O2'
_cell_volume   1620.58103859
_cell_formula_units_Z   1
loop_
 _symmetry_equiv_pos_site_id
 _symmetry_equiv_pos_as_xyz
  1  'x, y, z'
loop_
 _atom_site_type_symbol
 _atom_site_label
 _atom_site_symmetry_multiplicity
 _atom_site_fract_x
 _atom_site_fract_y
 _atom_site_fract_z
 _atom_site_occupancy
  Pt  Pt0  1  0.00000000  0.00000000  0.45833200  1
  Pt  Pt1  1  0.00000000  0.33333400  0.45833200  1
  Pt  Pt2  1  0.00000000  0.66666700  0.45833200  1
  Pt  Pt3  1  0.33333400  0.00000000  0.45833200  1
  Pt  Pt4  1  0.33333400  0.33333400  0.45833200  1
  Pt  Pt5  1  0.33333400  0.66666700  0.45833200  1
  Pt  Pt6  1  0.66666700  0.00000000  0.45833200  1
  Pt  Pt7  1  0.66666700  0.33333400  0.45833200  1
  Pt  Pt8  1  0.66666700  0.66666700  0.45833200  1
  Pt  Pt9  1  0.99743395  0.99922515  0.62340730  1
  Pt  Pt10  1  0.99747182  0.33394558  0.62351949  1
  Pt  Pt11  1  0.99965985  0.66652910  0.62468242  1
  Pt  Pt12  1  0.33332096  0.98910865  0.62779733  1
  Pt  Pt13  1  0.33333414  0.34312579  0.62788374  1
  Pt  Pt14  1  0.33332329  0.66645672  0.62562879  1
  Pt  Pt15  1  0.66921855  0.99922605  0.62340689  1
  Pt  Pt16  1  0.66918039  0.33395056  0.62352458  1
  Pt  Pt17  1  0.66698027  0.66652661  0.62468935  1
  Pt  Pt18  1  0.16666500  0.16666000  0.54141400  1
  Pt  Pt19  1  0.16666500  0.49999300  0.54141400  1
  Pt  Pt20  1  0.16666500  0.83332900  0.54141400  1
  Pt  Pt21  1  0.49999700  0.16666000  0.54141400  1
  Pt  Pt22  1  0.49999700  0.49999400  0.54141400  1
  Pt  Pt23  1  0.49999700  0.83332900  0.54141400  1
  Pt  Pt24  1  0.83333200  0.16666000  0.54141400  1
  Pt  Pt25  1  0.83333100  0.49999400  0.54141400  1
  Pt  Pt26  1  0.83333100  0.83332900  0.54141400  1
  O  O27  1  0.33332849  0.16558211  0.68362912  1
  O  O28  1  0.33569700  0.49558649  0.77411923  1
  H  H29  1  0.33658821  0.48055924  0.73269440  1
