# generated using pymatgen
data_Ag27CO2
_symmetry_space_group_name_H-M   'P 1'
_cell_length_a   8.60496519
_cell_length_b   8.60496881
_cell_length_c   23.47925300
_cell_angle_alpha   90.00483404
_cell_angle_beta   93.49762144
_cell_angle_gamma   119.99565775
_symmetry_Int_Tables_number   1
_chemical_formula_structural   Ag27CO2
_chemical_formula_sum   'Ag27 C1 O2'
_cell_volume   1501.93330901
_cell_formula_units_Z   1
loop_
 _symmetry_equiv_pos_site_id
 _symmetry_equiv_pos_as_xyz
  1  'x, y, z'
loop_
 _atom_site_type_symbol
 _atom_site_label
 _atom_site_symmetry_multiplicity
 _atom_site_fract_x
 _atom_site_fract_y
 _atom_site_fract_z
 _atom_site_occupancy
  Ag  Ag0  1  0.20000000  0.26666700  0.40000000  1
  Ag  Ag1  1  0.20000000  0.60000000  0.40000000  1
  Ag  Ag2  1  0.20000000  0.93333300  0.40000000  1
  Ag  Ag3  1  0.53333300  0.26666700  0.40000000  1
  Ag  Ag4  1  0.53333300  0.60000000  0.40000000  1
  Ag  Ag5  1  0.53333300  0.93333300  0.40000000  1
  Ag  Ag6  1  0.86666700  0.26666700  0.40000000  1
  Ag  Ag7  1  0.86666700  0.60000000  0.40000000  1
  Ag  Ag8  1  0.86666700  0.93333300  0.40000000  1
  Ag  Ag9  1  0.33248593  0.16062595  0.49906127  1
  Ag  Ag10  1  0.33267786  0.49802578  0.49916754  1
  Ag  Ag11  1  0.33344354  0.83013774  0.50094019  1
  Ag  Ag12  1  0.66857700  0.16440074  0.50105891  1
  Ag  Ag13  1  0.67091559  0.49941585  0.49921191  1
  Ag  Ag14  1  0.66768991  0.83167619  0.50101910  1
  Ag  Ag15  1  0.99993529  0.16410932  0.50085129  1
  Ag  Ag16  1  0.00230442  0.49744626  0.50088295  1
  Ag  Ag17  1  0.00126784  0.83110696  0.50094004  1
  Ag  Ag18  1  0.13393861  0.06301887  0.60086626  1
  Ag  Ag19  1  0.13449780  0.39514959  0.60128483  1
  Ag  Ag20  1  0.13474753  0.72925592  0.60218131  1
  Ag  Ag21  1  0.46787109  0.06237129  0.60110643  1
  Ag  Ag22  1  0.46701246  0.39535979  0.59428012  1
  Ag  Ag23  1  0.46612722  0.72798510  0.60093170  1
  Ag  Ag24  1  0.80046040  0.06222550  0.60222500  1
  Ag  Ag25  1  0.80153697  0.39452487  0.60176012  1
  Ag  Ag26  1  0.80092143  0.72784348  0.60113087  1
  C  C27  1  0.47384725  0.40281569  0.72025132  1
  O  O28  1  0.54913788  0.56003298  0.71987337  1
  O  O29  1  0.39816535  0.24528288  0.71940822  1
