# generated using pymatgen
data_HAu27
_symmetry_space_group_name_H-M   'P 1'
_cell_length_a   8.57606266
_cell_length_b   8.57606266
_cell_length_c   23.65109797
_cell_angle_alpha   88.12641697
_cell_angle_beta   88.12641697
_cell_angle_gamma   63.40130658
_symmetry_Int_Tables_number   1
_chemical_formula_structural   HAu27
_chemical_formula_sum   'H1 Au27'
_cell_volume   1554.26011481
_cell_formula_units_Z   1
loop_
 _symmetry_equiv_pos_site_id
 _symmetry_equiv_pos_as_xyz
  1  'x, y, z'
loop_
 _atom_site_type_symbol
 _atom_site_label
 _atom_site_symmetry_multiplicity
 _atom_site_fract_x
 _atom_site_fract_y
 _atom_site_fract_z
 _atom_site_occupancy
  Au  Au0  1  0.20672221  0.20672218  0.60928762  1
  Au  Au1  1  0.20966307  0.53923968  0.60879164  1
  Au  Au2  1  0.20073506  0.87515903  0.60915639  1
  Au  Au3  1  0.53923965  0.20966307  0.60879164  1
  Au  Au4  1  0.53930496  0.53930490  0.61064641  1
  Au  Au5  1  0.52954831  0.88514444  0.61317244  1
  Au  Au6  1  0.87515897  0.20073515  0.60915638  1
  Au  Au7  1  0.88514444  0.52954834  0.61317243  1
  Au  Au8  1  0.87118117  0.87118119  0.60890109  1
  Au  Au9  1  0.00061611  0.33753690  0.50531454  1
  Au  Au10  1  0.00213074  0.66950806  0.50497035  1
  Au  Au11  1  0.00292989  0.00293003  0.50385956  1
  Au  Au12  1  0.33527619  0.33527615  0.50418117  1
  Au  Au13  1  0.33760276  0.66814591  0.50505722  1
  Au  Au14  1  0.33753730  0.00061649  0.50531453  1
  Au  Au15  1  0.66814595  0.33760274  0.50505720  1
  Au  Au16  1  0.67007590  0.67007583  0.50478943  1
  Au  Au17  1  0.66950802  0.00213075  0.50497034  1
  Au  Au18  1  0.13333300  0.13333300  0.40000000  1
  Au  Au19  1  0.13333300  0.46666600  0.40000000  1
  Au  Au20  1  0.13333300  0.80000000  0.40000000  1
  Au  Au21  1  0.46666600  0.13333300  0.40000000  1
  Au  Au22  1  0.46666700  0.46666700  0.40000000  1
  Au  Au23  1  0.46666700  0.80000000  0.40000000  1
  Au  Au24  1  0.80000000  0.13333300  0.40000000  1
  Au  Au25  1  0.80000000  0.46666700  0.40000000  1
  Au  Au26  1  0.80000000  0.80000000  0.40000000  1
  H  H27  1  0.65651495  0.65651492  0.64284862  1
