# generated using pymatgen
data_Au27N2
_symmetry_space_group_name_H-M   'P 1'
_cell_length_a   8.57606266
_cell_length_b   8.57606266
_cell_length_c   23.65109797
_cell_angle_alpha   88.12641697
_cell_angle_beta   88.12641697
_cell_angle_gamma   63.40130658
_symmetry_Int_Tables_number   1
_chemical_formula_structural   Au27N2
_chemical_formula_sum   'Au27 N2'
_cell_volume   1554.26011481
_cell_formula_units_Z   1
loop_
 _symmetry_equiv_pos_site_id
 _symmetry_equiv_pos_as_xyz
  1  'x, y, z'
loop_
 _atom_site_type_symbol
 _atom_site_label
 _atom_site_symmetry_multiplicity
 _atom_site_fract_x
 _atom_site_fract_y
 _atom_site_fract_z
 _atom_site_occupancy
  Au  Au0  1  0.20366088  0.20366084  0.60760542  1
  Au  Au1  1  0.20286407  0.53728949  0.60595406  1
  Au  Au2  1  0.20211345  0.87137943  0.60629435  1
  Au  Au3  1  0.53728948  0.20286413  0.60595404  1
  Au  Au4  1  0.53716867  0.53716889  0.60095114  1
  Au  Au5  1  0.53589703  0.87123771  0.60597743  1
  Au  Au6  1  0.87137942  0.20211350  0.60629432  1
  Au  Au7  1  0.87123765  0.53589717  0.60597737  1
  Au  Au8  1  0.86955249  0.86955257  0.60750309  1
  Au  Au9  1  0.00279578  0.33328944  0.50342231  1
  Au  Au10  1  0.99938597  0.66804332  0.50328934  1
  Au  Au11  1  0.00056734  0.00056733  0.50314984  1
  Au  Au12  1  0.33497663  0.33497661  0.50325913  1
  Au  Au13  1  0.33074365  0.67069622  0.50232439  1
  Au  Au14  1  0.33328950  0.00279578  0.50342231  1
  Au  Au15  1  0.67069622  0.33074365  0.50232440  1
  Au  Au16  1  0.66729550  0.66729562  0.50292861  1
  Au  Au17  1  0.66804345  0.99938598  0.50328932  1
  Au  Au18  1  0.13333300  0.13333300  0.40000000  1
  Au  Au19  1  0.13333300  0.46666600  0.40000000  1
  Au  Au20  1  0.13333300  0.80000000  0.40000000  1
  Au  Au21  1  0.46666600  0.13333300  0.40000000  1
  Au  Au22  1  0.46666700  0.46666700  0.40000000  1
  Au  Au23  1  0.46666700  0.80000000  0.40000000  1
  Au  Au24  1  0.80000000  0.13333300  0.40000000  1
  Au  Au25  1  0.80000000  0.46666700  0.40000000  1
  Au  Au26  1  0.80000000  0.80000000  0.40000000  1
  N  N27  1  0.52918378  0.52918241  0.72624210  1
  N  N28  1  0.52244668  0.52244775  0.77307257  1
