# generated using pymatgen
data_Au27CO
_symmetry_space_group_name_H-M   'P 1'
_cell_length_a   8.57606266
_cell_length_b   8.57606266
_cell_length_c   23.65109797
_cell_angle_alpha   88.12641697
_cell_angle_beta   88.12641697
_cell_angle_gamma   63.40130658
_symmetry_Int_Tables_number   1
_chemical_formula_structural   Au27CO
_chemical_formula_sum   'Au27 C1 O1'
_cell_volume   1554.26011481
_cell_formula_units_Z   1
loop_
 _symmetry_equiv_pos_site_id
 _symmetry_equiv_pos_as_xyz
  1  'x, y, z'
loop_
 _atom_site_type_symbol
 _atom_site_label
 _atom_site_symmetry_multiplicity
 _atom_site_fract_x
 _atom_site_fract_y
 _atom_site_fract_z
 _atom_site_occupancy
  Au  Au0  1  0.20520256  0.20527981  0.60608664  1
  Au  Au1  1  0.19911523  0.54008883  0.60502846  1
  Au  Au2  1  0.19801640  0.87740947  0.60538354  1
  Au  Au3  1  0.53999948  0.19924403  0.60503275  1
  Au  Au4  1  0.53583649  0.53588435  0.60842378  1
  Au  Au5  1  0.53403575  0.87653831  0.60467549  1
  Au  Au6  1  0.87728825  0.19813195  0.60540346  1
  Au  Au7  1  0.87639403  0.53412782  0.60468704  1
  Au  Au8  1  0.86950243  0.86957185  0.60576380  1
  Au  Au9  1  0.00022399  0.33414474  0.50215305  1
  Au  Au10  1  0.00199442  0.66863103  0.50154629  1
  Au  Au11  1  0.00090609  0.00098845  0.50134394  1
  Au  Au12  1  0.33345249  0.33349822  0.50271777  1
  Au  Au13  1  0.33735277  0.66554399  0.50514720  1
  Au  Au14  1  0.33404309  0.00027358  0.50215226  1
  Au  Au15  1  0.66552610  0.33733641  0.50513706  1
  Au  Au16  1  0.66794315  0.66799184  0.50424854  1
  Au  Au17  1  0.66854891  0.00203766  0.50154518  1
  Au  Au18  1  0.13333300  0.13333300  0.40000000  1
  Au  Au19  1  0.13333300  0.46666600  0.40000000  1
  Au  Au20  1  0.13333300  0.80000000  0.40000000  1
  Au  Au21  1  0.46666600  0.13333300  0.40000000  1
  Au  Au22  1  0.46666700  0.46666700  0.40000000  1
  Au  Au23  1  0.46666700  0.80000000  0.40000000  1
  Au  Au24  1  0.80000000  0.13333300  0.40000000  1
  Au  Au25  1  0.80000000  0.46666700  0.40000000  1
  Au  Au26  1  0.80000000  0.80000000  0.40000000  1
  O  O27  1  0.51632530  0.50747026  0.74225662  1
  C  C28  1  0.53108707  0.52890548  0.69455268  1
