# generated using pymatgen
data_Au27CO2
_symmetry_space_group_name_H-M   'P 1'
_cell_length_a   8.57606266
_cell_length_b   8.57606266
_cell_length_c   23.65109797
_cell_angle_alpha   88.12641697
_cell_angle_beta   88.12641697
_cell_angle_gamma   63.40130658
_symmetry_Int_Tables_number   1
_chemical_formula_structural   Au27CO2
_chemical_formula_sum   'Au27 C1 O2'
_cell_volume   1554.26011481
_cell_formula_units_Z   1
loop_
 _symmetry_equiv_pos_site_id
 _symmetry_equiv_pos_as_xyz
  1  'x, y, z'
loop_
 _atom_site_type_symbol
 _atom_site_label
 _atom_site_symmetry_multiplicity
 _atom_site_fract_x
 _atom_site_fract_y
 _atom_site_fract_z
 _atom_site_occupancy
  Au  Au0  1  0.20272353  0.20292423  0.60561880  1
  Au  Au1  1  0.20257080  0.53623727  0.60512616  1
  Au  Au2  1  0.20113969  0.87027651  0.60482067  1
  Au  Au3  1  0.53592360  0.20240974  0.60450227  1
  Au  Au4  1  0.53628460  0.53701076  0.59830750  1
  Au  Au5  1  0.53530779  0.87023630  0.60443872  1
  Au  Au6  1  0.87054664  0.20109018  0.60480033  1
  Au  Au7  1  0.86951522  0.53490075  0.60502637  1
  Au  Au8  1  0.86872594  0.86850519  0.60561620  1
  Au  Au9  1  0.00217028  0.33332389  0.50269610  1
  Au  Au10  1  0.99970536  0.66706791  0.50288747  1
  Au  Au11  1  0.00030788  0.00029622  0.50248323  1
  Au  Au12  1  0.33442565  0.33542620  0.50251760  1
  Au  Au13  1  0.32995367  0.67132826  0.50086967  1
  Au  Au14  1  0.33312644  0.00266153  0.50262643  1
  Au  Au15  1  0.67091845  0.32977694  0.50093963  1
  Au  Au16  1  0.66774315  0.66723062  0.50149831  1
  Au  Au17  1  0.66761440  0.99930293  0.50262616  1
  Au  Au18  1  0.13333300  0.13333300  0.40000000  1
  Au  Au19  1  0.13333300  0.46666600  0.40000000  1
  Au  Au20  1  0.13333300  0.80000000  0.40000000  1
  Au  Au21  1  0.46666600  0.13333300  0.40000000  1
  Au  Au22  1  0.46666700  0.46666700  0.40000000  1
  Au  Au23  1  0.46666700  0.80000000  0.40000000  1
  Au  Au24  1  0.80000000  0.13333300  0.40000000  1
  Au  Au25  1  0.80000000  0.46666700  0.40000000  1
  Au  Au26  1  0.80000000  0.80000000  0.40000000  1
  C  C27  1  0.52675773  0.52664906  0.72827586  1
  O  O28  1  0.45834706  0.67930610  0.72857746  1
  O  O29  1  0.59531421  0.37356036  0.72832782  1
