# generated using pymatgen
data_HAu27O
_symmetry_space_group_name_H-M   'P 1'
_cell_length_a   8.57606266
_cell_length_b   8.57606266
_cell_length_c   23.65109797
_cell_angle_alpha   88.12641697
_cell_angle_beta   88.12641697
_cell_angle_gamma   63.40130658
_symmetry_Int_Tables_number   1
_chemical_formula_structural   HAu27O
_chemical_formula_sum   'H1 Au27 O1'
_cell_volume   1554.26011481
_cell_formula_units_Z   1
loop_
 _symmetry_equiv_pos_site_id
 _symmetry_equiv_pos_as_xyz
  1  'x, y, z'
loop_
 _atom_site_type_symbol
 _atom_site_label
 _atom_site_symmetry_multiplicity
 _atom_site_fract_x
 _atom_site_fract_y
 _atom_site_fract_z
 _atom_site_occupancy
  Au  Au0  1  0.20765270  0.20765290  0.60661136  1
  Au  Au1  1  0.20780519  0.54093256  0.60647995  1
  Au  Au2  1  0.20763452  0.87428531  0.60653815  1
  Au  Au3  1  0.54093275  0.20780517  0.60647946  1
  Au  Au4  1  0.54121265  0.54121265  0.60541217  1
  Au  Au5  1  0.54087062  0.87451237  0.60655058  1
  Au  Au6  1  0.87428517  0.20763437  0.60653829  1
  Au  Au7  1  0.87451244  0.54087062  0.60655120  1
  Au  Au8  1  0.87426598  0.87426586  0.60661860  1
  Au  Au9  1  0.00273720  0.33576909  0.50334368  1
  Au  Au10  1  0.00219452  0.66921994  0.50333468  1
  Au  Au11  1  0.00249088  0.00249184  0.50332802  1
  Au  Au12  1  0.33594415  0.33594395  0.50330261  1
  Au  Au13  1  0.33501191  0.66980081  0.50305895  1
  Au  Au14  1  0.33576886  0.00273757  0.50334391  1
  Au  Au15  1  0.66980131  0.33501154  0.50305889  1
  Au  Au16  1  0.66911702  0.66911638  0.50319116  1
  Au  Au17  1  0.66922004  0.00219475  0.50333481  1
  Au  Au18  1  0.13333300  0.13333300  0.40000000  1
  Au  Au19  1  0.13333300  0.46666600  0.40000000  1
  Au  Au20  1  0.13333300  0.80000000  0.40000000  1
  Au  Au21  1  0.46666600  0.13333300  0.40000000  1
  Au  Au22  1  0.46666700  0.46666700  0.40000000  1
  Au  Au23  1  0.46666700  0.80000000  0.40000000  1
  Au  Au24  1  0.80000000  0.13333300  0.40000000  1
  Au  Au25  1  0.80000000  0.46666700  0.40000000  1
  Au  Au26  1  0.80000000  0.80000000  0.40000000  1
  O  O27  1  0.52579694  0.52579715  0.75840904  1
  H  H28  1  0.52308177  0.52308187  0.80165799  1
