# generated using pymatgen
data_Te16Mo12H
_symmetry_space_group_name_H-M   'P 1'
_cell_length_a   7.04082001
_cell_length_b   7.04195269
_cell_length_c   29.08263700
_cell_angle_alpha   92.42233475
_cell_angle_beta   92.43396473
_cell_angle_gamma   92.45457226
_symmetry_Int_Tables_number   1
_chemical_formula_structural   Te16Mo12H
_chemical_formula_sum   'Te16 Mo12 H1'
_cell_volume   1437.92269216
_cell_formula_units_Z   1
loop_
 _symmetry_equiv_pos_site_id
 _symmetry_equiv_pos_as_xyz
  1  'x, y, z'
loop_
 _atom_site_type_symbol
 _atom_site_label
 _atom_site_symmetry_multiplicity
 _atom_site_fract_x
 _atom_site_fract_y
 _atom_site_fract_z
 _atom_site_occupancy
  Mo  Mo0  1  0.24426621  0.54850068  0.35204983  1
  Mo  Mo1  1  0.24212064  0.53724462  0.59540426  1
  Mo  Mo2  1  0.75497866  0.45638235  0.39045626  1
  Mo  Mo3  1  0.76055349  0.44667419  0.63249566  1
  Mo  Mo4  1  0.41792741  0.24517193  0.38163458  1
  Mo  Mo5  1  0.42790605  0.23139282  0.62337091  1
  Mo  Mo6  1  0.57714249  0.75747141  0.36108166  1
  Mo  Mo7  1  0.58187393  0.75205483  0.60308113  1
  Mo  Mo8  1  0.54335900  0.41937700  0.30833700  1
  Mo  Mo9  1  0.54487773  0.41709088  0.55127028  1
  Mo  Mo10  1  0.45443150  0.58099632  0.43526157  1
  Mo  Mo11  1  0.46093391  0.57066490  0.67771690  1
  Te  Te12  1  0.11467289  0.37735739  0.43144472  1
  Te  Te13  1  0.11795120  0.36504173  0.67419296  1
  Te  Te14  1  0.88219500  0.62512800  0.31051700  1
  Te  Te15  1  0.88531924  0.62250038  0.55360735  1
  Te  Te16  1  0.74986000  0.11788600  0.34077800  1
  Te  Te17  1  0.75084999  0.11114730  0.58076153  1
  Te  Te18  1  0.25142140  0.88405345  0.40352491  1
  Te  Te19  1  0.25748149  0.87308229  0.64856802  1
  Te  Te20  1  0.37496100  0.74994600  0.27852400  1
  Te  Te21  1  0.36916011  0.74649934  0.52242556  1
  Te  Te22  1  0.62355882  0.24960839  0.46354191  1
  Te  Te23  1  0.62647457  0.24751506  0.70684049  1
  Te  Te24  1  0.20510400  0.20534500  0.29972100  1
  Te  Te25  1  0.20770441  0.20054568  0.54261872  1
  Te  Te26  1  0.79076727  0.79386176  0.44312024  1
  Te  Te27  1  0.79274328  0.79198595  0.68417666  1
  H  H28  1  0.43694973  0.63510179  0.73779400  1
