# generated using pymatgen
data_Te16Mo12H
_symmetry_space_group_name_H-M   'P 1'
_cell_length_a   7.04082001
_cell_length_b   7.04195269
_cell_length_c   29.08263700
_cell_angle_alpha   92.42233475
_cell_angle_beta   92.43396473
_cell_angle_gamma   92.45457226
_symmetry_Int_Tables_number   1
_chemical_formula_structural   Te16Mo12H
_chemical_formula_sum   'Te16 Mo12 H1'
_cell_volume   1437.92269216
_cell_formula_units_Z   1
loop_
 _symmetry_equiv_pos_site_id
 _symmetry_equiv_pos_as_xyz
  1  'x, y, z'
loop_
 _atom_site_type_symbol
 _atom_site_label
 _atom_site_symmetry_multiplicity
 _atom_site_fract_x
 _atom_site_fract_y
 _atom_site_fract_z
 _atom_site_occupancy
  Mo  Mo0  1  0.24421173  0.54817110  0.35211804  1
  Mo  Mo1  1  0.25096200  0.52769984  0.59602520  1
  Mo  Mo2  1  0.75720355  0.45673391  0.39023989  1
  Mo  Mo3  1  0.76338798  0.43821699  0.63470354  1
  Mo  Mo4  1  0.41812099  0.24424582  0.38159383  1
  Mo  Mo5  1  0.42656121  0.22407503  0.62505830  1
  Mo  Mo6  1  0.57706150  0.75803941  0.36127145  1
  Mo  Mo7  1  0.58802871  0.74126768  0.60519141  1
  Mo  Mo8  1  0.54335900  0.41937700  0.30833700  1
  Mo  Mo9  1  0.55249098  0.40464854  0.55057261  1
  Mo  Mo10  1  0.45588831  0.57946179  0.43515733  1
  Mo  Mo11  1  0.45540133  0.56469457  0.67569628  1
  Te  Te12  1  0.11568592  0.37623866  0.43166379  1
  Te  Te13  1  0.12316192  0.35229809  0.67584178  1
  Te  Te14  1  0.88219500  0.62512800  0.31051700  1
  Te  Te15  1  0.89151467  0.60668513  0.55465179  1
  Te  Te16  1  0.74986000  0.11788600  0.34077800  1
  Te  Te17  1  0.75607198  0.10303330  0.58154236  1
  Te  Te18  1  0.25163075  0.88251956  0.40407511  1
  Te  Te19  1  0.25650284  0.86493603  0.64867158  1
  Te  Te20  1  0.37496100  0.74994600  0.27852400  1
  Te  Te21  1  0.38258678  0.73588856  0.52316293  1
  Te  Te22  1  0.62625765  0.24446064  0.46258111  1
  Te  Te23  1  0.63510458  0.23299498  0.70634355  1
  Te  Te24  1  0.20510400  0.20534500  0.29972100  1
  Te  Te25  1  0.22175454  0.18541288  0.54241685  1
  Te  Te26  1  0.79363006  0.79176296  0.44335436  1
  Te  Te27  1  0.78664980  0.77835904  0.68971770  1
  H  H28  1  0.51437990  0.46117496  0.73263878  1
