# generated using pymatgen
data_Ag27CO2
_symmetry_space_group_name_H-M   'P 1'
_cell_length_a   8.60496519
_cell_length_b   8.60496881
_cell_length_c   23.47925300
_cell_angle_alpha   90.00483404
_cell_angle_beta   93.49762144
_cell_angle_gamma   119.99565775
_symmetry_Int_Tables_number   1
_chemical_formula_structural   Ag27CO2
_chemical_formula_sum   'Ag27 C1 O2'
_cell_volume   1501.93330901
_cell_formula_units_Z   1
loop_
 _symmetry_equiv_pos_site_id
 _symmetry_equiv_pos_as_xyz
  1  'x, y, z'
loop_
 _atom_site_type_symbol
 _atom_site_label
 _atom_site_symmetry_multiplicity
 _atom_site_fract_x
 _atom_site_fract_y
 _atom_site_fract_z
 _atom_site_occupancy
  Ag  Ag0  1  0.20000000  0.26666700  0.40000000  1
  Ag  Ag1  1  0.20000000  0.60000000  0.40000000  1
  Ag  Ag2  1  0.20000000  0.93333300  0.40000000  1
  Ag  Ag3  1  0.53333300  0.26666700  0.40000000  1
  Ag  Ag4  1  0.53333300  0.60000000  0.40000000  1
  Ag  Ag5  1  0.53333300  0.93333300  0.40000000  1
  Ag  Ag6  1  0.86666700  0.26666700  0.40000000  1
  Ag  Ag7  1  0.86666700  0.60000000  0.40000000  1
  Ag  Ag8  1  0.86666700  0.93333300  0.40000000  1
  Ag  Ag9  1  0.33222587  0.16430764  0.50038861  1
  Ag  Ag10  1  0.33225314  0.50123386  0.50046890  1
  Ag  Ag11  1  0.33348404  0.83345430  0.50235585  1
  Ag  Ag12  1  0.66748492  0.16698871  0.50249783  1
  Ag  Ag13  1  0.66934174  0.50127875  0.50047374  1
  Ag  Ag14  1  0.66733499  0.83375318  0.50258203  1
  Ag  Ag15  1  0.00021419  0.16693171  0.50236838  1
  Ag  Ag16  1  0.00054224  0.50035833  0.50243811  1
  Ag  Ag17  1  0.00070134  0.83340706  0.50232185  1
  Ag  Ag18  1  0.13355515  0.06679219  0.60383937  1
  Ag  Ag19  1  0.13441769  0.40054659  0.60434676  1
  Ag  Ag20  1  0.13444093  0.73376398  0.60539713  1
  Ag  Ag21  1  0.46784635  0.06682342  0.60409716  1
  Ag  Ag22  1  0.46659056  0.39985669  0.59685045  1
  Ag  Ag23  1  0.46684902  0.73375708  0.60411333  1
  Ag  Ag24  1  0.80123137  0.06731595  0.60548026  1
  Ag  Ag25  1  0.80100979  0.40060999  0.60472473  1
  Ag  Ag26  1  0.80164489  0.73377322  0.60426843  1
  C  C27  1  0.47509564  0.40440945  0.72462196  1
  O  O28  1  0.55376619  0.56206380  0.72484465  1
  O  O29  1  0.39659830  0.24721372  0.72424456  1
