# generated using pymatgen
data_Ag27HCO2
_symmetry_space_group_name_H-M   'P 1'
_cell_length_a   8.60496519
_cell_length_b   8.60496881
_cell_length_c   23.47925300
_cell_angle_alpha   90.00483404
_cell_angle_beta   93.49762144
_cell_angle_gamma   119.99565775
_symmetry_Int_Tables_number   1
_chemical_formula_structural   Ag27HCO2
_chemical_formula_sum   'Ag27 H1 C1 O2'
_cell_volume   1501.93330901
_cell_formula_units_Z   1
loop_
 _symmetry_equiv_pos_site_id
 _symmetry_equiv_pos_as_xyz
  1  'x, y, z'
loop_
 _atom_site_type_symbol
 _atom_site_label
 _atom_site_symmetry_multiplicity
 _atom_site_fract_x
 _atom_site_fract_y
 _atom_site_fract_z
 _atom_site_occupancy
  Ag  Ag0  1  0.20000000  0.26666700  0.40000000  1
  Ag  Ag1  1  0.20000000  0.60000000  0.40000000  1
  Ag  Ag2  1  0.20000000  0.93333300  0.40000000  1
  Ag  Ag3  1  0.53333300  0.26666700  0.40000000  1
  Ag  Ag4  1  0.53333300  0.60000000  0.40000000  1
  Ag  Ag5  1  0.53333300  0.93333300  0.40000000  1
  Ag  Ag6  1  0.86666700  0.26666700  0.40000000  1
  Ag  Ag7  1  0.86666700  0.60000000  0.40000000  1
  Ag  Ag8  1  0.86666700  0.93333300  0.40000000  1
  Ag  Ag9  1  0.33324970  0.16620994  0.50093110  1
  Ag  Ag10  1  0.33316677  0.50032577  0.50093492  1
  Ag  Ag11  1  0.33323564  0.83332212  0.50084837  1
  Ag  Ag12  1  0.66660197  0.16696976  0.50102956  1
  Ag  Ag13  1  0.66724007  0.50019783  0.50092765  1
  Ag  Ag14  1  0.66670489  0.83308028  0.50105162  1
  Ag  Ag15  1  0.00075572  0.16700047  0.50108291  1
  Ag  Ag16  1  0.00038223  0.50030525  0.50076473  1
  Ag  Ag17  1  0.00045300  0.83347633  0.50082437  1
  Ag  Ag18  1  0.13163514  0.06509248  0.60173649  1
  Ag  Ag19  1  0.13165053  0.40016592  0.60168126  1
  Ag  Ag20  1  0.13386900  0.73355387  0.60215722  1
  Ag  Ag21  1  0.46745194  0.06514555  0.60168435  1
  Ag  Ag22  1  0.46786185  0.40064104  0.59915189  1
  Ag  Ag23  1  0.46706896  0.73536883  0.60174263  1
  Ag  Ag24  1  0.80056115  0.06698415  0.60209741  1
  Ag  Ag25  1  0.80218921  0.40013897  0.60171346  1
  Ag  Ag26  1  0.80222118  0.73531677  0.60172251  1
  C  C27  1  0.47906896  0.40392578  0.74887961  1
  O  O28  1  0.41678165  0.26834396  0.77973221  1
  O  O29  1  0.46756670  0.40166675  0.69498424  1
  H  H30  1  0.55102927  0.53992942  0.77065367  1
