# generated using pymatgen
data_HRh27
_symmetry_space_group_name_H-M   'P 1'
_cell_length_a   8.03675400
_cell_length_b   8.03670000
_cell_length_c   22.73128200
_cell_angle_alpha   89.99972196
_cell_angle_beta   89.99972196
_cell_angle_gamma   89.99991445
_symmetry_Int_Tables_number   1
_chemical_formula_structural   HRh27
_chemical_formula_sum   'H1 Rh27'
_cell_volume   1468.19033829
_cell_formula_units_Z   1
loop_
 _symmetry_equiv_pos_site_id
 _symmetry_equiv_pos_as_xyz
  1  'x, y, z'
loop_
 _atom_site_type_symbol
 _atom_site_label
 _atom_site_symmetry_multiplicity
 _atom_site_fract_x
 _atom_site_fract_y
 _atom_site_fract_z
 _atom_site_occupancy
  Rh  Rh0  1  0.99999600  0.99999800  0.45626600  1
  Rh  Rh1  1  0.99999600  0.33332900  0.45626800  1
  Rh  Rh2  1  0.99999600  0.66666400  0.45626700  1
  Rh  Rh3  1  0.33332900  0.99999800  0.45626700  1
  Rh  Rh4  1  0.33332900  0.33332900  0.45626900  1
  Rh  Rh5  1  0.33332900  0.66666400  0.45626800  1
  Rh  Rh6  1  0.66666300  0.99999800  0.45626800  1
  Rh  Rh7  1  0.66666300  0.33332900  0.45626900  1
  Rh  Rh8  1  0.66666300  0.66666400  0.45626900  1
  Rh  Rh9  1  0.16666700  0.16666700  0.37500000  1
  Rh  Rh10  1  0.16666700  0.50000000  0.37500000  1
  Rh  Rh11  1  0.16666700  0.83333300  0.37500000  1
  Rh  Rh12  1  0.50000000  0.16666700  0.37500000  1
  Rh  Rh13  1  0.50000000  0.50000000  0.37500000  1
  Rh  Rh14  1  0.50000000  0.83333300  0.37500000  1
  Rh  Rh15  1  0.83333300  0.16666700  0.37500000  1
  Rh  Rh16  1  0.83333300  0.50000000  0.37500000  1
  Rh  Rh17  1  0.83333300  0.83333300  0.37500000  1
  Rh  Rh18  1  0.16665980  0.16666010  0.53782614  1
  Rh  Rh19  1  0.16666076  0.49970040  0.53785182  1
  Rh  Rh20  1  0.16666098  0.83362294  0.53785111  1
  Rh  Rh21  1  0.49969812  0.16666146  0.53785234  1
  Rh  Rh22  1  0.49941657  0.49941816  0.53855779  1
  Rh  Rh23  1  0.49941755  0.83390973  0.53855682  1
  Rh  Rh24  1  0.83362235  0.16666170  0.53785194  1
  Rh  Rh25  1  0.83390883  0.49941940  0.53855694  1
  Rh  Rh26  1  0.83390875  0.83390940  0.53855587  1
  H  H27  1  0.66663667  0.66663957  0.56532380  1
