# generated using pymatgen
data_Pt27O
_symmetry_space_group_name_H-M   'P 1'
_cell_length_a   8.30585400
_cell_length_b   8.30548202
_cell_length_c   23.49208800
_cell_angle_alpha   89.99751652
_cell_angle_beta   89.99900665
_cell_angle_gamma   89.99635752
_symmetry_Int_Tables_number   1
_chemical_formula_structural   Pt27O
_chemical_formula_sum   'Pt27 O1'
_cell_volume   1620.58103859
_cell_formula_units_Z   1
loop_
 _symmetry_equiv_pos_site_id
 _symmetry_equiv_pos_as_xyz
  1  'x, y, z'
loop_
 _atom_site_type_symbol
 _atom_site_label
 _atom_site_symmetry_multiplicity
 _atom_site_fract_x
 _atom_site_fract_y
 _atom_site_fract_z
 _atom_site_occupancy
  Pt  Pt0  1  0.00000000  0.00000000  0.45833200  1
  Pt  Pt1  1  0.00000000  0.33333400  0.45833200  1
  Pt  Pt2  1  0.00000000  0.66666700  0.45833200  1
  Pt  Pt3  1  0.33333400  0.00000000  0.45833200  1
  Pt  Pt4  1  0.33333400  0.33333400  0.45833200  1
  Pt  Pt5  1  0.33333400  0.66666700  0.45833200  1
  Pt  Pt6  1  0.66666700  0.00000000  0.45833200  1
  Pt  Pt7  1  0.66666700  0.33333400  0.45833200  1
  Pt  Pt8  1  0.66666700  0.66666700  0.45833200  1
  Pt  Pt9  1  0.99920223  0.99919224  0.62487867  1
  Pt  Pt10  1  0.99763500  0.33332002  0.62351996  1
  Pt  Pt11  1  0.99919994  0.66744054  0.62487982  1
  Pt  Pt12  1  0.33332866  0.99762465  0.62351942  1
  Pt  Pt13  1  0.33331902  0.33330979  0.63171721  1
  Pt  Pt14  1  0.33332582  0.66900476  0.62352024  1
  Pt  Pt15  1  0.66745033  0.99918972  0.62487854  1
  Pt  Pt16  1  0.66901419  0.33331721  0.62351981  1
  Pt  Pt17  1  0.66744830  0.66743872  0.62488009  1
  Pt  Pt18  1  0.16666400  0.16666100  0.54157000  1
  Pt  Pt19  1  0.16666400  0.49999500  0.54157000  1
  Pt  Pt20  1  0.16666400  0.83332300  0.54157000  1
  Pt  Pt21  1  0.49999700  0.16666100  0.54157100  1
  Pt  Pt22  1  0.49999700  0.49999500  0.54157000  1
  Pt  Pt23  1  0.49999700  0.83332300  0.54157000  1
  Pt  Pt24  1  0.83333000  0.16666100  0.54157000  1
  Pt  Pt25  1  0.83333000  0.49999500  0.54157000  1
  Pt  Pt26  1  0.83333000  0.83332300  0.54157000  1
  O  O27  1  0.33334830  0.33333952  0.71123382  1
