# generated using pymatgen
data_HRh27
_symmetry_space_group_name_H-M   'P 1'
_cell_length_a   8.03675400
_cell_length_b   8.03670000
_cell_length_c   22.73128200
_cell_angle_alpha   89.99972196
_cell_angle_beta   89.99972196
_cell_angle_gamma   89.99991445
_symmetry_Int_Tables_number   1
_chemical_formula_structural   HRh27
_chemical_formula_sum   'H1 Rh27'
_cell_volume   1468.19033829
_cell_formula_units_Z   1
loop_
 _symmetry_equiv_pos_site_id
 _symmetry_equiv_pos_as_xyz
  1  'x, y, z'
loop_
 _atom_site_type_symbol
 _atom_site_label
 _atom_site_symmetry_multiplicity
 _atom_site_fract_x
 _atom_site_fract_y
 _atom_site_fract_z
 _atom_site_occupancy
  Rh  Rh0  1  0.99999600  0.99999800  0.45670300  1
  Rh  Rh1  1  0.99999600  0.33332900  0.45670200  1
  Rh  Rh2  1  0.99999600  0.66666600  0.45670200  1
  Rh  Rh3  1  0.33332900  0.99999800  0.45670100  1
  Rh  Rh4  1  0.33332900  0.33332900  0.45670000  1
  Rh  Rh5  1  0.33332900  0.66666600  0.45670000  1
  Rh  Rh6  1  0.66666800  0.99999800  0.45670200  1
  Rh  Rh7  1  0.66666800  0.33332900  0.45670000  1
  Rh  Rh8  1  0.66666800  0.66666600  0.45670000  1
  Rh  Rh9  1  0.16666700  0.16666700  0.37500000  1
  Rh  Rh10  1  0.16666700  0.50000000  0.37500000  1
  Rh  Rh11  1  0.16666700  0.83333300  0.37500000  1
  Rh  Rh12  1  0.50000000  0.16666700  0.37500000  1
  Rh  Rh13  1  0.50000000  0.50000000  0.37500000  1
  Rh  Rh14  1  0.50000000  0.83333300  0.37500000  1
  Rh  Rh15  1  0.83333300  0.16666700  0.37500000  1
  Rh  Rh16  1  0.83333300  0.50000000  0.37500000  1
  Rh  Rh17  1  0.83333300  0.83333300  0.37500000  1
  Rh  Rh18  1  0.16666677  0.16666624  0.53829201  1
  Rh  Rh19  1  0.16666716  0.49971536  0.53832256  1
  Rh  Rh20  1  0.16666771  0.83360805  0.53832436  1
  Rh  Rh21  1  0.49971498  0.16666710  0.53832246  1
  Rh  Rh22  1  0.49943060  0.49943019  0.53902425  1
  Rh  Rh23  1  0.49943215  0.83389769  0.53902519  1
  Rh  Rh24  1  0.83360773  0.16666752  0.53832517  1
  Rh  Rh25  1  0.83389732  0.49943220  0.53902595  1
  Rh  Rh26  1  0.83389653  0.83389667  0.53902688  1
  H  H27  1  0.66662931  0.66662739  0.56627417  1
