# generated using pymatgen
data_HAu27O
_symmetry_space_group_name_H-M   'P 1'
_cell_length_a   8.57606266
_cell_length_b   8.57606266
_cell_length_c   23.65109797
_cell_angle_alpha   88.12641697
_cell_angle_beta   88.12641697
_cell_angle_gamma   63.40130658
_symmetry_Int_Tables_number   1
_chemical_formula_structural   HAu27O
_chemical_formula_sum   'H1 Au27 O1'
_cell_volume   1554.26011481
_cell_formula_units_Z   1
loop_
 _symmetry_equiv_pos_site_id
 _symmetry_equiv_pos_as_xyz
  1  'x, y, z'
loop_
 _atom_site_type_symbol
 _atom_site_label
 _atom_site_symmetry_multiplicity
 _atom_site_fract_x
 _atom_site_fract_y
 _atom_site_fract_z
 _atom_site_occupancy
  Au  Au0  1  0.20510397  0.20510398  0.60618158  1
  Au  Au1  1  0.20413503  0.53864359  0.60555951  1
  Au  Au2  1  0.20368894  0.87269826  0.60588308  1
  Au  Au3  1  0.53864367  0.20413492  0.60555953  1
  Au  Au4  1  0.53842819  0.53842809  0.60321601  1
  Au  Au5  1  0.53759824  0.87217118  0.60563765  1
  Au  Au6  1  0.87269822  0.20368898  0.60588308  1
  Au  Au7  1  0.87217134  0.53759807  0.60563760  1
  Au  Au8  1  0.87117738  0.87117738  0.60620615  1
  Au  Au9  1  0.00231207  0.33439642  0.50291644  1
  Au  Au10  1  0.00092071  0.66829089  0.50285056  1
  Au  Au11  1  0.00131202  0.00131196  0.50284383  1
  Au  Au12  1  0.33525965  0.33525966  0.50284156  1
  Au  Au13  1  0.33342549  0.66949075  0.50266928  1
  Au  Au14  1  0.33439644  0.00231200  0.50291639  1
  Au  Au15  1  0.66949088  0.33342546  0.50266930  1
  Au  Au16  1  0.66809133  0.66809128  0.50274552  1
  Au  Au17  1  0.66829076  0.00092069  0.50285056  1
  Au  Au18  1  0.13333300  0.13333300  0.40000000  1
  Au  Au19  1  0.13333300  0.46666600  0.40000000  1
  Au  Au20  1  0.13333300  0.80000000  0.40000000  1
  Au  Au21  1  0.46666600  0.13333300  0.40000000  1
  Au  Au22  1  0.46666700  0.46666700  0.40000000  1
  Au  Au23  1  0.46666700  0.80000000  0.40000000  1
  Au  Au24  1  0.80000000  0.13333300  0.40000000  1
  Au  Au25  1  0.80000000  0.46666700  0.40000000  1
  Au  Au26  1  0.80000000  0.80000000  0.40000000  1
  O  O27  1  0.52625257  0.52625254  0.74110223  1
  H  H28  1  0.52362965  0.52362964  0.78369326  1
