# generated using pymatgen
data_HRh27
_symmetry_space_group_name_H-M   'P 1'
_cell_length_a   8.03675400
_cell_length_b   8.03670000
_cell_length_c   22.73128200
_cell_angle_alpha   89.99972196
_cell_angle_beta   89.99972196
_cell_angle_gamma   89.99991445
_symmetry_Int_Tables_number   1
_chemical_formula_structural   HRh27
_chemical_formula_sum   'H1 Rh27'
_cell_volume   1468.19033829
_cell_formula_units_Z   1
loop_
 _symmetry_equiv_pos_site_id
 _symmetry_equiv_pos_as_xyz
  1  'x, y, z'
loop_
 _atom_site_type_symbol
 _atom_site_label
 _atom_site_symmetry_multiplicity
 _atom_site_fract_x
 _atom_site_fract_y
 _atom_site_fract_z
 _atom_site_occupancy
  Rh  Rh0  1  0.00000000  0.99999900  0.45658400  1
  Rh  Rh1  1  0.00000000  0.33333400  0.45658600  1
  Rh  Rh2  1  0.00000000  0.66666400  0.45658500  1
  Rh  Rh3  1  0.33333200  0.99999900  0.45658600  1
  Rh  Rh4  1  0.33333200  0.33333400  0.45658800  1
  Rh  Rh5  1  0.33333200  0.66666400  0.45658800  1
  Rh  Rh6  1  0.66666500  0.99999900  0.45658700  1
  Rh  Rh7  1  0.66666500  0.33333400  0.45658800  1
  Rh  Rh8  1  0.66666500  0.66666400  0.45658800  1
  Rh  Rh9  1  0.16666700  0.16666700  0.37500000  1
  Rh  Rh10  1  0.16666700  0.50000000  0.37500000  1
  Rh  Rh11  1  0.16666700  0.83333300  0.37500000  1
  Rh  Rh12  1  0.50000000  0.16666700  0.37500000  1
  Rh  Rh13  1  0.50000000  0.50000000  0.37500000  1
  Rh  Rh14  1  0.50000000  0.83333300  0.37500000  1
  Rh  Rh15  1  0.83333300  0.16666700  0.37500000  1
  Rh  Rh16  1  0.83333300  0.50000000  0.37500000  1
  Rh  Rh17  1  0.83333300  0.83333300  0.37500000  1
  Rh  Rh18  1  0.16619721  0.16619894  0.53828999  1
  Rh  Rh19  1  0.16606507  0.49999633  0.53820206  1
  Rh  Rh20  1  0.16619707  0.83379676  0.53829056  1
  Rh  Rh21  1  0.49999687  0.16606704  0.53820170  1
  Rh  Rh22  1  0.49999900  0.49999789  0.54038637  1
  Rh  Rh23  1  0.49999713  0.83392954  0.53820237  1
  Rh  Rh24  1  0.83379789  0.16619925  0.53828981  1
  Rh  Rh25  1  0.83393036  0.49999653  0.53820193  1
  Rh  Rh26  1  0.83379812  0.83379659  0.53829042  1
  H  H27  1  0.49999804  0.49999993  0.61075701  1
