# generated using pymatgen
data_Ag27HCO2
_symmetry_space_group_name_H-M   'P 1'
_cell_length_a   8.60496519
_cell_length_b   8.60496881
_cell_length_c   23.47925300
_cell_angle_alpha   90.00483404
_cell_angle_beta   93.49762144
_cell_angle_gamma   119.99565775
_symmetry_Int_Tables_number   1
_chemical_formula_structural   Ag27HCO2
_chemical_formula_sum   'Ag27 H1 C1 O2'
_cell_volume   1501.93330901
_cell_formula_units_Z   1
loop_
 _symmetry_equiv_pos_site_id
 _symmetry_equiv_pos_as_xyz
  1  'x, y, z'
loop_
 _atom_site_type_symbol
 _atom_site_label
 _atom_site_symmetry_multiplicity
 _atom_site_fract_x
 _atom_site_fract_y
 _atom_site_fract_z
 _atom_site_occupancy
  Ag  Ag0  1  0.20000000  0.26666700  0.40000000  1
  Ag  Ag1  1  0.20000000  0.60000000  0.40000000  1
  Ag  Ag2  1  0.20000000  0.93333300  0.40000000  1
  Ag  Ag3  1  0.53333300  0.26666700  0.40000000  1
  Ag  Ag4  1  0.53333300  0.60000000  0.40000000  1
  Ag  Ag5  1  0.53333300  0.93333300  0.40000000  1
  Ag  Ag6  1  0.86666700  0.26666700  0.40000000  1
  Ag  Ag7  1  0.86666700  0.60000000  0.40000000  1
  Ag  Ag8  1  0.86666700  0.93333300  0.40000000  1
  Ag  Ag9  1  0.33459203  0.16847107  0.50327360  1
  Ag  Ag10  1  0.33451008  0.50019231  0.50320514  1
  Ag  Ag11  1  0.33381197  0.83398265  0.50223488  1
  Ag  Ag12  1  0.66726773  0.16743806  0.50239595  1
  Ag  Ag13  1  0.66631685  0.50020318  0.50353059  1
  Ag  Ag14  1  0.66731178  0.83385149  0.50238555  1
  Ag  Ag15  1  0.00056797  0.16728162  0.50224148  1
  Ag  Ag16  1  0.00018617  0.50071755  0.50215773  1
  Ag  Ag17  1  0.00022581  0.83350070  0.50214546  1
  Ag  Ag18  1  0.13300159  0.06640612  0.60379971  1
  Ag  Ag19  1  0.13283832  0.40111900  0.60384239  1
  Ag  Ag20  1  0.13432188  0.73439007  0.60443773  1
  Ag  Ag21  1  0.46784329  0.06769890  0.60453938  1
  Ag  Ag22  1  0.46782893  0.40167830  0.60780459  1
  Ag  Ag23  1  0.46789099  0.73516229  0.60440203  1
  Ag  Ag24  1  0.80109870  0.06783877  0.60459796  1
  Ag  Ag25  1  0.80059894  0.40099037  0.60499281  1
  Ag  Ag26  1  0.80072669  0.73433169  0.60497758  1
  C  C27  1  0.48143213  0.40144816  0.76574659  1
  O  O28  1  0.48736103  0.31166077  0.80800675  1
  O  O29  1  0.35654928  0.34960709  0.72698005  1
  H  H30  1  0.59905854  0.54097261  0.76339960  1
