# generated using pymatgen
data_HAu27CO
_symmetry_space_group_name_H-M   'P 1'
_cell_length_a   8.57606266
_cell_length_b   8.57606266
_cell_length_c   23.65109797
_cell_angle_alpha   88.12641697
_cell_angle_beta   88.12641697
_cell_angle_gamma   63.40130658
_symmetry_Int_Tables_number   1
_chemical_formula_structural   HAu27CO
_chemical_formula_sum   'H1 Au27 C1 O1'
_cell_volume   1554.26011481
_cell_formula_units_Z   1
loop_
 _symmetry_equiv_pos_site_id
 _symmetry_equiv_pos_as_xyz
  1  'x, y, z'
loop_
 _atom_site_type_symbol
 _atom_site_label
 _atom_site_symmetry_multiplicity
 _atom_site_fract_x
 _atom_site_fract_y
 _atom_site_fract_z
 _atom_site_occupancy
  Au  Au0  1  0.22038132  0.22368448  0.60445648  1
  Au  Au1  1  0.19547009  0.57123793  0.61115130  1
  Au  Au2  1  0.21164885  0.89750919  0.60308891  1
  Au  Au3  1  0.56273114  0.20342899  0.61988874  1
  Au  Au4  1  0.55793824  0.55479075  0.60730659  1
  Au  Au5  1  0.54788627  0.88746211  0.60520202  1
  Au  Au6  1  0.89035195  0.21898040  0.60369382  1
  Au  Au7  1  0.88115741  0.55534565  0.60436422  1
  Au  Au8  1  0.87858234  0.89105932  0.60507797  1
  Au  Au9  1  0.00915522  0.34321955  0.50210632  1
  Au  Au10  1  0.01498070  0.67167779  0.50416864  1
  Au  Au11  1  0.00390453  0.00893045  0.50155112  1
  Au  Au12  1  0.34384807  0.34397430  0.50453448  1
  Au  Au13  1  0.34450429  0.67506996  0.50343092  1
  Au  Au14  1  0.33982295  0.01121237  0.50181485  1
  Au  Au15  1  0.67348814  0.34666056  0.50313395  1
  Au  Au16  1  0.67512465  0.67932450  0.50250117  1
  Au  Au17  1  0.66618445  0.02006716  0.50501880  1
  Au  Au18  1  0.13333300  0.13333300  0.40000000  1
  Au  Au19  1  0.13333300  0.46666600  0.40000000  1
  Au  Au20  1  0.13333300  0.80000000  0.40000000  1
  Au  Au21  1  0.46666600  0.13333300  0.40000000  1
  Au  Au22  1  0.46666700  0.46666700  0.40000000  1
  Au  Au23  1  0.46666700  0.80000000  0.40000000  1
  Au  Au24  1  0.80000000  0.13333300  0.40000000  1
  Au  Au25  1  0.80000000  0.46666700  0.40000000  1
  Au  Au26  1  0.80000000  0.80000000  0.40000000  1
  C  C27  1  0.41852823  0.44592289  0.65901491  1
  H  H28  1  0.51558676  0.40236784  0.73458379  1
  O  O29  1  0.40463914  0.46781585  0.71400064  1
