# generated using pymatgen
data_Ag27HO
_symmetry_space_group_name_H-M   'P 1'
_cell_length_a   8.60496519
_cell_length_b   8.60496881
_cell_length_c   23.47925300
_cell_angle_alpha   90.00483404
_cell_angle_beta   93.49762144
_cell_angle_gamma   119.99565775
_symmetry_Int_Tables_number   1
_chemical_formula_structural   Ag27HO
_chemical_formula_sum   'Ag27 H1 O1'
_cell_volume   1501.93330901
_cell_formula_units_Z   1
loop_
 _symmetry_equiv_pos_site_id
 _symmetry_equiv_pos_as_xyz
  1  'x, y, z'
loop_
 _atom_site_type_symbol
 _atom_site_label
 _atom_site_symmetry_multiplicity
 _atom_site_fract_x
 _atom_site_fract_y
 _atom_site_fract_z
 _atom_site_occupancy
  Ag  Ag0  1  0.20000000  0.26666700  0.40000000  1
  Ag  Ag1  1  0.20000000  0.60000000  0.40000000  1
  Ag  Ag2  1  0.20000000  0.93333300  0.40000000  1
  Ag  Ag3  1  0.53333300  0.26666700  0.40000000  1
  Ag  Ag4  1  0.53333300  0.60000000  0.40000000  1
  Ag  Ag5  1  0.53333300  0.93333300  0.40000000  1
  Ag  Ag6  1  0.86666700  0.26666700  0.40000000  1
  Ag  Ag7  1  0.86666700  0.60000000  0.40000000  1
  Ag  Ag8  1  0.86666700  0.93333300  0.40000000  1
  Ag  Ag9  1  0.33741273  0.17013362  0.50398739  1
  Ag  Ag10  1  0.33742111  0.50030467  0.50400470  1
  Ag  Ag11  1  0.33561852  0.83433003  0.50206929  1
  Ag  Ag12  1  0.66956432  0.16821065  0.50240427  1
  Ag  Ag13  1  0.66592568  0.49947525  0.50529317  1
  Ag  Ag14  1  0.66955475  0.83439500  0.50241200  1
  Ag  Ag15  1  0.00273013  0.16787450  0.50207597  1
  Ag  Ag16  1  0.00215159  0.50158624  0.50183735  1
  Ag  Ag17  1  0.00209303  0.83350374  0.50181277  1
  Ag  Ag18  1  0.13349199  0.06470714  0.60324496  1
  Ag  Ag19  1  0.13368084  0.40153201  0.60332327  1
  Ag  Ag20  1  0.13765773  0.73520554  0.60432646  1
  Ag  Ag21  1  0.47162429  0.06705583  0.60411653  1
  Ag  Ag22  1  0.47007865  0.40130912  0.61252255  1
  Ag  Ag23  1  0.47166030  0.73724597  0.60416057  1
  Ag  Ag24  1  0.80451190  0.06865110  0.60494509  1
  Ag  Ag25  1  0.80501696  0.40187890  0.60507874  1
  Ag  Ag26  1  0.80490122  0.73583678  0.60509296  1
  O  O27  1  0.42476802  0.37731147  0.70601066  1
  H  H28  1  0.54436157  0.44119728  0.72601162  1
