# generated using pymatgen
data_H3Au27N
_symmetry_space_group_name_H-M   'P 1'
_cell_length_a   8.57606266
_cell_length_b   8.57606266
_cell_length_c   23.65109797
_cell_angle_alpha   88.12641697
_cell_angle_beta   88.12641697
_cell_angle_gamma   63.40130658
_symmetry_Int_Tables_number   1
_chemical_formula_structural   H3Au27N
_chemical_formula_sum   'H3 Au27 N1'
_cell_volume   1554.26011481
_cell_formula_units_Z   1
loop_
 _symmetry_equiv_pos_site_id
 _symmetry_equiv_pos_as_xyz
  1  'x, y, z'
loop_
 _atom_site_type_symbol
 _atom_site_label
 _atom_site_symmetry_multiplicity
 _atom_site_fract_x
 _atom_site_fract_y
 _atom_site_fract_z
 _atom_site_occupancy
  Au  Au0  1  0.20431163  0.20428932  0.60544322  1
  Au  Au1  1  0.19940935  0.53860974  0.60350021  1
  Au  Au2  1  0.19711750  0.87568052  0.60378774  1
  Au  Au3  1  0.53872192  0.19858646  0.60340284  1
  Au  Au4  1  0.53705882  0.53541993  0.60517480  1
  Au  Au5  1  0.53236653  0.87452847  0.60397629  1
  Au  Au6  1  0.87544762  0.19721744  0.60408290  1
  Au  Au7  1  0.87537098  0.53217783  0.60385651  1
  Au  Au8  1  0.86785645  0.86774273  0.60457630  1
  Au  Au9  1  0.00125261  0.33333376  0.50203509  1
  Au  Au10  1  0.00042319  0.66862787  0.50136408  1
  Au  Au11  1  0.00044518  0.00074227  0.50109965  1
  Au  Au12  1  0.33378690  0.33378043  0.50231009  1
  Au  Au13  1  0.33631127  0.66563520  0.50387133  1
  Au  Au14  1  0.33346813  0.00112447  0.50205969  1
  Au  Au15  1  0.66570219  0.33627954  0.50389630  1
  Au  Au16  1  0.66704072  0.66699092  0.50390098  1
  Au  Au17  1  0.66868230  0.00022473  0.50133243  1
  Au  Au18  1  0.13333300  0.13333300  0.40000000  1
  Au  Au19  1  0.13333300  0.46666600  0.40000000  1
  Au  Au20  1  0.13333300  0.80000000  0.40000000  1
  Au  Au21  1  0.46666600  0.13333300  0.40000000  1
  Au  Au22  1  0.46666700  0.46666700  0.40000000  1
  Au  Au23  1  0.46666700  0.80000000  0.40000000  1
  Au  Au24  1  0.80000000  0.13333300  0.40000000  1
  Au  Au25  1  0.80000000  0.46666700  0.40000000  1
  Au  Au26  1  0.80000000  0.80000000  0.40000000  1
  N  N27  1  0.52617988  0.53048988  0.69946977  1
  H  H28  1  0.61694768  0.56281795  0.71589698  1
  H  H29  1  0.40509251  0.61705006  0.71419691  1
  H  H30  1  0.55059660  0.40805584  0.71477956  1
