# generated using pymatgen
data_HAu27O2
_symmetry_space_group_name_H-M   'P 1'
_cell_length_a   8.57606266
_cell_length_b   8.57606266
_cell_length_c   23.65109797
_cell_angle_alpha   88.12641697
_cell_angle_beta   88.12641697
_cell_angle_gamma   63.40130658
_symmetry_Int_Tables_number   1
_chemical_formula_structural   HAu27O2
_chemical_formula_sum   'H1 Au27 O2'
_cell_volume   1554.26011481
_cell_formula_units_Z   1
loop_
 _symmetry_equiv_pos_site_id
 _symmetry_equiv_pos_as_xyz
  1  'x, y, z'
loop_
 _atom_site_type_symbol
 _atom_site_label
 _atom_site_symmetry_multiplicity
 _atom_site_fract_x
 _atom_site_fract_y
 _atom_site_fract_z
 _atom_site_occupancy
  Au  Au0  1  0.20687350  0.20953241  0.60358841  1
  Au  Au1  1  0.20472748  0.54295120  0.60306363  1
  Au  Au2  1  0.20316254  0.87903269  0.60299462  1
  Au  Au3  1  0.54140605  0.20376300  0.60222880  1
  Au  Au4  1  0.54146593  0.54111491  0.60619075  1
  Au  Au5  1  0.53728924  0.87849645  0.60375925  1
  Au  Au6  1  0.87736664  0.20447214  0.60256141  1
  Au  Au7  1  0.87831935  0.53919504  0.60329675  1
  Au  Au8  1  0.87240821  0.87434079  0.60289148  1
  Au  Au9  1  0.00161046  0.33599544  0.50134274  1
  Au  Au10  1  0.00263608  0.66994776  0.50111587  1
  Au  Au11  1  0.00209571  0.00225264  0.50085686  1
  Au  Au12  1  0.33473365  0.33635340  0.50171570  1
  Au  Au13  1  0.33890140  0.66690667  0.50360840  1
  Au  Au14  1  0.33533231  0.00284004  0.50148000  1
  Au  Au15  1  0.66603948  0.33916490  0.50323749  1
  Au  Au16  1  0.66796924  0.66882563  0.50383936  1
  Au  Au17  1  0.66960327  0.00264996  0.50083602  1
  Au  Au18  1  0.13333300  0.13333300  0.40000000  1
  Au  Au19  1  0.13333300  0.46666600  0.40000000  1
  Au  Au20  1  0.13333300  0.80000000  0.40000000  1
  Au  Au21  1  0.46666600  0.13333300  0.40000000  1
  Au  Au22  1  0.46666700  0.46666700  0.40000000  1
  Au  Au23  1  0.46666700  0.80000000  0.40000000  1
  Au  Au24  1  0.80000000  0.13333300  0.40000000  1
  Au  Au25  1  0.80000000  0.46666700  0.40000000  1
  Au  Au26  1  0.80000000  0.80000000  0.40000000  1
  O  O27  1  0.52413171  0.48503371  0.69653717  1
  O  O28  1  0.53752958  0.61263508  0.73318939  1
  H  H29  1  0.41852299  0.71030556  0.73153257  1
