# generated using pymatgen
data_HPt27
_symmetry_space_group_name_H-M   'P 1'
_cell_length_a   8.30585400
_cell_length_b   8.30548202
_cell_length_c   23.49208800
_cell_angle_alpha   89.99751652
_cell_angle_beta   89.99900665
_cell_angle_gamma   89.99635752
_symmetry_Int_Tables_number   1
_chemical_formula_structural   HPt27
_chemical_formula_sum   'H1 Pt27'
_cell_volume   1620.58103859
_cell_formula_units_Z   1
loop_
 _symmetry_equiv_pos_site_id
 _symmetry_equiv_pos_as_xyz
  1  'x, y, z'
loop_
 _atom_site_type_symbol
 _atom_site_label
 _atom_site_symmetry_multiplicity
 _atom_site_fract_x
 _atom_site_fract_y
 _atom_site_fract_z
 _atom_site_occupancy
  Pt  Pt0  1  0.00000000  0.00000000  0.45833200  1
  Pt  Pt1  1  0.00000000  0.33333400  0.45833200  1
  Pt  Pt2  1  0.00000000  0.66666700  0.45833200  1
  Pt  Pt3  1  0.33333400  0.00000000  0.45833200  1
  Pt  Pt4  1  0.33333400  0.33333400  0.45833200  1
  Pt  Pt5  1  0.33333400  0.66666700  0.45833200  1
  Pt  Pt6  1  0.66666700  0.00000000  0.45833200  1
  Pt  Pt7  1  0.66666700  0.33333400  0.45833200  1
  Pt  Pt8  1  0.66666700  0.66666700  0.45833200  1
  Pt  Pt9  1  0.99999341  0.99997960  0.62469353  1
  Pt  Pt10  1  0.99999129  0.33332064  0.62466556  1
  Pt  Pt11  1  0.99999284  0.66663907  0.62466567  1
  Pt  Pt12  1  0.33332934  0.99997721  0.62466481  1
  Pt  Pt13  1  0.33297179  0.33296143  0.62592026  1
  Pt  Pt14  1  0.33297470  0.66698551  0.62592183  1
  Pt  Pt15  1  0.66664976  0.99997897  0.62466892  1
  Pt  Pt16  1  0.66699598  0.33296414  0.62592536  1
  Pt  Pt17  1  0.66699735  0.66698717  0.62592627  1
  Pt  Pt18  1  0.16666200  0.16665700  0.54159200  1
  Pt  Pt19  1  0.16666200  0.49999100  0.54159200  1
  Pt  Pt20  1  0.16666100  0.83332400  0.54159200  1
  Pt  Pt21  1  0.50000000  0.16665700  0.54159600  1
  Pt  Pt22  1  0.50000000  0.49999000  0.54159600  1
  Pt  Pt23  1  0.50000000  0.83332400  0.54159600  1
  Pt  Pt24  1  0.83332600  0.16665700  0.54159700  1
  Pt  Pt25  1  0.83332600  0.49999100  0.54159700  1
  Pt  Pt26  1  0.83332600  0.83332400  0.54159700  1
  H  H27  1  0.50002602  0.50002134  0.65250380  1
