# generated using pymatgen
data_HRh27O2
_symmetry_space_group_name_H-M   'P 1'
_cell_length_a   8.03675400
_cell_length_b   8.03670000
_cell_length_c   22.73128200
_cell_angle_alpha   89.99972196
_cell_angle_beta   89.99972196
_cell_angle_gamma   89.99991445
_symmetry_Int_Tables_number   1
_chemical_formula_structural   HRh27O2
_chemical_formula_sum   'H1 Rh27 O2'
_cell_volume   1468.19033829
_cell_formula_units_Z   1
loop_
 _symmetry_equiv_pos_site_id
 _symmetry_equiv_pos_as_xyz
  1  'x, y, z'
loop_
 _atom_site_type_symbol
 _atom_site_label
 _atom_site_symmetry_multiplicity
 _atom_site_fract_x
 _atom_site_fract_y
 _atom_site_fract_z
 _atom_site_occupancy
  Rh  Rh0  1  0.99999700  0.99999700  0.45626700  1
  Rh  Rh1  1  0.99999700  0.33332500  0.45626400  1
  Rh  Rh2  1  0.99999700  0.66666900  0.45626400  1
  Rh  Rh3  1  0.33332500  0.99999600  0.45626400  1
  Rh  Rh4  1  0.33332500  0.33332500  0.45626100  1
  Rh  Rh5  1  0.33332500  0.66666800  0.45626100  1
  Rh  Rh6  1  0.66666900  0.99999700  0.45626400  1
  Rh  Rh7  1  0.66666800  0.33332500  0.45626100  1
  Rh  Rh8  1  0.66666800  0.66666800  0.45626100  1
  Rh  Rh9  1  0.16666700  0.16666700  0.37500000  1
  Rh  Rh10  1  0.16666700  0.50000000  0.37500000  1
  Rh  Rh11  1  0.16666700  0.83333300  0.37500000  1
  Rh  Rh12  1  0.50000000  0.16666700  0.37500000  1
  Rh  Rh13  1  0.50000000  0.50000000  0.37500000  1
  Rh  Rh14  1  0.50000000  0.83333300  0.37500000  1
  Rh  Rh15  1  0.83333300  0.16666700  0.37500000  1
  Rh  Rh16  1  0.83333300  0.50000000  0.37500000  1
  Rh  Rh17  1  0.83333300  0.83333300  0.37500000  1
  Rh  Rh18  1  0.16659208  0.16654530  0.53755544  1
  Rh  Rh19  1  0.16656953  0.50038838  0.53768898  1
  Rh  Rh20  1  0.16646158  0.83361948  0.53754259  1
  Rh  Rh21  1  0.49968261  0.16517318  0.53753423  1
  Rh  Rh22  1  0.50182035  0.50052689  0.53824037  1
  Rh  Rh23  1  0.49945852  0.83314925  0.53785303  1
  Rh  Rh24  1  0.83371285  0.16609193  0.53738303  1
  Rh  Rh25  1  0.83516781  0.50031088  0.53753033  1
  Rh  Rh26  1  0.83353104  0.83365281  0.53746702  1
  O  O27  1  0.54344845  0.46050704  0.62081715  1
  O  O28  1  0.44904351  0.57706274  0.65442043  1
  H  H29  1  0.53260472  0.61755667  0.68382982  1
