# generated using pymatgen
data_Te16Mo12CO2
_symmetry_space_group_name_H-M   'P 1'
_cell_length_a   7.04082001
_cell_length_b   7.04195269
_cell_length_c   29.08263700
_cell_angle_alpha   92.42233475
_cell_angle_beta   92.43396473
_cell_angle_gamma   92.45457226
_symmetry_Int_Tables_number   1
_chemical_formula_structural   Te16Mo12CO2
_chemical_formula_sum   'Te16 Mo12 C1 O2'
_cell_volume   1437.92269216
_cell_formula_units_Z   1
loop_
 _symmetry_equiv_pos_site_id
 _symmetry_equiv_pos_as_xyz
  1  'x, y, z'
loop_
 _atom_site_type_symbol
 _atom_site_label
 _atom_site_symmetry_multiplicity
 _atom_site_fract_x
 _atom_site_fract_y
 _atom_site_fract_z
 _atom_site_occupancy
  Mo  Mo0  1  0.24233277  0.54751078  0.35173480  1
  Mo  Mo1  1  0.25160925  0.54149112  0.59445090  1
  Mo  Mo2  1  0.75822189  0.45852983  0.38999598  1
  Mo  Mo3  1  0.77036230  0.45085390  0.63055343  1
  Mo  Mo4  1  0.41833871  0.24457070  0.38132214  1
  Mo  Mo5  1  0.43639881  0.23608380  0.62235663  1
  Mo  Mo6  1  0.57465491  0.76058681  0.36070025  1
  Mo  Mo7  1  0.58917494  0.75375787  0.60141456  1
  Mo  Mo8  1  0.54335900  0.41937700  0.30833700  1
  Mo  Mo9  1  0.55124237  0.41913699  0.54902642  1
  Mo  Mo10  1  0.45584103  0.58154661  0.43442780  1
  Mo  Mo11  1  0.47250598  0.57382823  0.67470574  1
  Te  Te12  1  0.11600886  0.37625000  0.43155294  1
  Te  Te13  1  0.12772883  0.36856989  0.67373050  1
  Te  Te14  1  0.88219500  0.62512800  0.31051700  1
  Te  Te15  1  0.89363621  0.62409233  0.55166145  1
  Te  Te16  1  0.74986000  0.11788600  0.34077800  1
  Te  Te17  1  0.75726098  0.11363015  0.57912324  1
  Te  Te18  1  0.25034844  0.88427909  0.40311574  1
  Te  Te19  1  0.26655186  0.87769772  0.64795575  1
  Te  Te20  1  0.37496100  0.74994600  0.27852400  1
  Te  Te21  1  0.37602070  0.74988438  0.52112133  1
  Te  Te22  1  0.62687491  0.24952687  0.46243801  1
  Te  Te23  1  0.63795510  0.25217131  0.70497407  1
  Te  Te24  1  0.20510400  0.20534500  0.29972100  1
  Te  Te25  1  0.21405069  0.20419143  0.54211967  1
  Te  Te26  1  0.79305467  0.79618485  0.44192672  1
  Te  Te27  1  0.80400189  0.79425884  0.68206606  1
  C  C28  1  0.42341915  0.56034182  0.78350523  1
  O  O29  1  0.42937550  0.67804055  0.75569472  1
  O  O30  1  0.41645266  0.44561077  0.81102262  1
