# generated using pymatgen
data_Ag27H3N
_symmetry_space_group_name_H-M   'P 1'
_cell_length_a   8.60517300
_cell_length_b   8.60496305
_cell_length_c   24.34014600
_cell_angle_alpha   89.99904118
_cell_angle_beta   89.99896131
_cell_angle_gamma   90.00613242
_symmetry_Int_Tables_number   1
_chemical_formula_structural   Ag27H3N
_chemical_formula_sum   'Ag27 H3 N1'
_cell_volume   1802.31954385
_cell_formula_units_Z   1
loop_
 _symmetry_equiv_pos_site_id
 _symmetry_equiv_pos_as_xyz
  1  'x, y, z'
loop_
 _atom_site_type_symbol
 _atom_site_label
 _atom_site_symmetry_multiplicity
 _atom_site_fract_x
 _atom_site_fract_y
 _atom_site_fract_z
 _atom_site_occupancy
  Ag  Ag0  1  0.33333300  0.00000000  0.45833300  1
  Ag  Ag1  1  0.33333300  0.33333300  0.45833300  1
  Ag  Ag2  1  0.33333300  0.66666700  0.45833300  1
  Ag  Ag3  1  0.66666700  0.00000000  0.45833300  1
  Ag  Ag4  1  0.66666700  0.33333300  0.45833300  1
  Ag  Ag5  1  0.66666700  0.66666700  0.45833300  1
  Ag  Ag6  1  0.00000000  0.00000000  0.45833300  1
  Ag  Ag7  1  0.00000000  0.33333300  0.45833300  1
  Ag  Ag8  1  0.00000000  0.66666700  0.45833300  1
  Ag  Ag9  1  0.33382548  0.99811422  0.62767702  1
  Ag  Ag10  1  0.33427294  0.33360769  0.63066339  1
  Ag  Ag11  1  0.33377462  0.66918961  0.62780763  1
  Ag  Ag12  1  0.66698532  0.00039794  0.62810749  1
  Ag  Ag13  1  0.66949020  0.33367889  0.62772735  1
  Ag  Ag14  1  0.66697123  0.66697105  0.62803556  1
  Ag  Ag15  1  0.00035132  0.00035929  0.62804869  1
  Ag  Ag16  1  0.99841050  0.33369357  0.62775418  1
  Ag  Ag17  1  0.00028273  0.66704754  0.62797092  1
  Ag  Ag18  1  0.16789852  0.16788636  0.54357320  1
  Ag  Ag19  1  0.16793233  0.49917301  0.54358067  1
  Ag  Ag20  1  0.16630670  0.83352665  0.54301347  1
  Ag  Ag21  1  0.49916645  0.16785704  0.54356465  1
  Ag  Ag22  1  0.49911748  0.49905477  0.54356837  1
  Ag  Ag23  1  0.50077562  0.83344260  0.54299555  1
  Ag  Ag24  1  0.83358672  0.16622277  0.54300402  1
  Ag  Ag25  1  0.83357826  0.50069514  0.54298566  1
  Ag  Ag26  1  0.83347611  0.83355530  0.54312158  1
  N  N27  1  0.32935094  0.33434359  0.72407773  1
  H  H28  1  0.43533776  0.36373121  0.74043506  1
  H  H29  1  0.24969695  0.41268259  0.73916457  1
  H  H30  1  0.30008363  0.22741910  0.73971289  1
