# generated using pymatgen
data_Fe4Mo12H(Se8N)2
_symmetry_space_group_name_H-M   'P 1'
_cell_length_a   6.73059675
_cell_length_b   6.68252955
_cell_length_c   28.41042900
_cell_angle_alpha   94.71078376
_cell_angle_beta   91.18717718
_cell_angle_gamma   96.76332947
_symmetry_Int_Tables_number   1
_chemical_formula_structural   Fe4Mo12H(Se8N)2
_chemical_formula_sum   'Fe4 Mo12 H1 Se16 N2'
_cell_volume   1264.05235895
_cell_formula_units_Z   1
loop_
 _symmetry_equiv_pos_site_id
 _symmetry_equiv_pos_as_xyz
  1  'x, y, z'
loop_
 _atom_site_type_symbol
 _atom_site_label
 _atom_site_symmetry_multiplicity
 _atom_site_fract_x
 _atom_site_fract_y
 _atom_site_fract_z
 _atom_site_occupancy
  Fe  Fe0  1  0.91393780  0.14627375  0.48133363  1
  Fe  Fe1  1  0.86860840  0.14557990  0.69176270  1
  Fe  Fe2  1  0.08366100  0.85003700  0.25310200  1
  Fe  Fe3  1  0.08154483  0.84962306  0.48969904  1
  Mo  Mo4  1  0.23223997  0.53660248  0.34786711  1
  Mo  Mo5  1  0.22310539  0.53956684  0.58187285  1
  Mo  Mo6  1  0.76699169  0.45898048  0.38718788  1
  Mo  Mo7  1  0.75437488  0.45366636  0.62318705  1
  Mo  Mo8  1  0.40957661  0.22533782  0.37698713  1
  Mo  Mo9  1  0.39788093  0.22843136  0.61312950  1
  Mo  Mo10  1  0.59069502  0.77416098  0.35800398  1
  Mo  Mo11  1  0.58498183  0.76729455  0.59380512  1
  Mo  Mo12  1  0.54876300  0.41297700  0.30450800  1
  Mo  Mo13  1  0.54328714  0.40945835  0.53892545  1
  Mo  Mo14  1  0.44987894  0.58532086  0.43152988  1
  Mo  Mo15  1  0.43820027  0.58940128  0.66470167  1
  Se  Se16  1  0.11464675  0.35909140  0.42355119  1
  Se  Se17  1  0.10609369  0.37403092  0.65781728  1
  Se  Se18  1  0.88453700  0.63734700  0.31138600  1
  Se  Se19  1  0.87778545  0.63439362  0.54751943  1
  Se  Se20  1  0.73367687  0.13478346  0.33359615  1
  Se  Se21  1  0.72979240  0.12917841  0.57076462  1
  Se  Se22  1  0.26001146  0.86381334  0.39989275  1
  Se  Se23  1  0.25750825  0.86678809  0.63535870  1
  Se  Se24  1  0.39326800  0.73478000  0.28166600  1
  Se  Se25  1  0.39237986  0.73650680  0.51665774  1
  Se  Se26  1  0.60545873  0.26199245  0.45350900  1
  Se  Se27  1  0.56431218  0.27948968  0.69532426  1
  Se  Se28  1  0.21444700  0.18780600  0.29890600  1
  Se  Se29  1  0.20803413  0.18727718  0.53342100  1
  Se  Se30  1  0.78593251  0.80930383  0.43678662  1
  Se  Se31  1  0.77978584  0.78811335  0.67499685  1
  N  N32  1  0.91711117  0.14534809  0.75078421  1
  N  N33  1  0.87559053  0.13725449  0.79139190  1
  H  H34  1  0.98769159  0.13587466  0.81716604  1
