# generated using pymatgen
data_Ag27H
_symmetry_space_group_name_H-M   'P 1'
_cell_length_a   8.60496519
_cell_length_b   8.60496881
_cell_length_c   23.47925300
_cell_angle_alpha   90.00483404
_cell_angle_beta   93.49762144
_cell_angle_gamma   119.99565775
_symmetry_Int_Tables_number   1
_chemical_formula_structural   Ag27H
_chemical_formula_sum   'Ag27 H1'
_cell_volume   1501.93330901
_cell_formula_units_Z   1
loop_
 _symmetry_equiv_pos_site_id
 _symmetry_equiv_pos_as_xyz
  1  'x, y, z'
loop_
 _atom_site_type_symbol
 _atom_site_label
 _atom_site_symmetry_multiplicity
 _atom_site_fract_x
 _atom_site_fract_y
 _atom_site_fract_z
 _atom_site_occupancy
  Ag  Ag0  1  0.20000000  0.26666700  0.40000000  1
  Ag  Ag1  1  0.20000000  0.60000000  0.40000000  1
  Ag  Ag2  1  0.20000000  0.93333300  0.40000000  1
  Ag  Ag3  1  0.53333300  0.26666700  0.40000000  1
  Ag  Ag4  1  0.53333300  0.60000000  0.40000000  1
  Ag  Ag5  1  0.53333300  0.93333300  0.40000000  1
  Ag  Ag6  1  0.86666700  0.26666700  0.40000000  1
  Ag  Ag7  1  0.86666700  0.60000000  0.40000000  1
  Ag  Ag8  1  0.86666700  0.93333300  0.40000000  1
  Ag  Ag9  1  0.33397770  0.16713246  0.50202177  1
  Ag  Ag10  1  0.33398435  0.50019655  0.50201906  1
  Ag  Ag11  1  0.33359669  0.83348201  0.50313789  1
  Ag  Ag12  1  0.66720361  0.16700901  0.50326301  1
  Ag  Ag13  1  0.66647121  0.49991603  0.50244921  1
  Ag  Ag14  1  0.66721019  0.83354932  0.50326163  1
  Ag  Ag15  1  0.00118486  0.16726015  0.50333462  1
  Ag  Ag16  1  0.00100089  0.50066217  0.50307355  1
  Ag  Ag17  1  0.00099994  0.83369598  0.50307553  1
  Ag  Ag18  1  0.13426026  0.06677500  0.60572397  1
  Ag  Ag19  1  0.13427484  0.40087101  0.60571546  1
  Ag  Ag20  1  0.13482659  0.73411118  0.60548392  1
  Ag  Ag21  1  0.46827223  0.06627344  0.60552484  1
  Ag  Ag22  1  0.46871978  0.40104421  0.60314457  1
  Ag  Ag23  1  0.46826285  0.73536923  0.60552045  1
  Ag  Ag24  1  0.80156909  0.06746469  0.60596612  1
  Ag  Ag25  1  0.80335255  0.40079154  0.60549259  1
  Ag  Ag26  1  0.80334160  0.73593353  0.60549824  1
  H  H27  1  0.45685082  0.39505505  0.67360795  1
