# generated using pymatgen
data_Ag27CO
_symmetry_space_group_name_H-M   'P 1'
_cell_length_a   8.60517300
_cell_length_b   8.60496305
_cell_length_c   24.34014600
_cell_angle_alpha   89.99904118
_cell_angle_beta   89.99896131
_cell_angle_gamma   90.00613242
_symmetry_Int_Tables_number   1
_chemical_formula_structural   Ag27CO
_chemical_formula_sum   'Ag27 C1 O1'
_cell_volume   1802.31954385
_cell_formula_units_Z   1
loop_
 _symmetry_equiv_pos_site_id
 _symmetry_equiv_pos_as_xyz
  1  'x, y, z'
loop_
 _atom_site_type_symbol
 _atom_site_label
 _atom_site_symmetry_multiplicity
 _atom_site_fract_x
 _atom_site_fract_y
 _atom_site_fract_z
 _atom_site_occupancy
  Ag  Ag0  1  0.33333300  0.00000000  0.45833300  1
  Ag  Ag1  1  0.33333300  0.33333300  0.45833300  1
  Ag  Ag2  1  0.33333300  0.66666700  0.45833300  1
  Ag  Ag3  1  0.66666700  0.00000000  0.45833300  1
  Ag  Ag4  1  0.66666700  0.33333300  0.45833300  1
  Ag  Ag5  1  0.66666700  0.66666700  0.45833300  1
  Ag  Ag6  1  0.00000000  0.00000000  0.45833300  1
  Ag  Ag7  1  0.00000000  0.33333300  0.45833300  1
  Ag  Ag8  1  0.00000000  0.66666700  0.45833300  1
  Ag  Ag9  1  0.33332658  0.99773402  0.62897569  1
  Ag  Ag10  1  0.33408685  0.33409208  0.63054364  1
  Ag  Ag11  1  0.33331285  0.66988206  0.62895786  1
  Ag  Ag12  1  0.66660068  0.00004125  0.62890666  1
  Ag  Ag13  1  0.66987908  0.33331348  0.62895786  1
  Ag  Ag14  1  0.66657929  0.66658011  0.62886572  1
  Ag  Ag15  1  0.00003540  0.00003582  0.62892829  1
  Ag  Ag16  1  0.99773022  0.33332698  0.62897570  1
  Ag  Ag17  1  0.00004099  0.66660171  0.62890649  1
  Ag  Ag18  1  0.16745876  0.16745959  0.54389318  1
  Ag  Ag19  1  0.16749210  0.49938523  0.54390241  1
  Ag  Ag20  1  0.16601883  0.83349396  0.54336060  1
  Ag  Ag21  1  0.49938447  0.16749262  0.54390233  1
  Ag  Ag22  1  0.49934761  0.49934863  0.54391305  1
  Ag  Ag23  1  0.50056805  0.83349912  0.54336800  1
  Ag  Ag24  1  0.83349293  0.16601903  0.54336064  1
  Ag  Ag25  1  0.83349797  0.50056810  0.54336811  1
  Ag  Ag26  1  0.83334674  0.83334697  0.54360516  1
  O  O27  1  0.32111738  0.32104271  0.76367182  1
  C  C28  1  0.32774395  0.32770739  0.71666555  1
