# generated using pymatgen
data_Ag27HCO
_symmetry_space_group_name_H-M   'P 1'
_cell_length_a   8.60517300
_cell_length_b   8.60496305
_cell_length_c   24.34014600
_cell_angle_alpha   89.99904118
_cell_angle_beta   89.99896131
_cell_angle_gamma   90.00613242
_symmetry_Int_Tables_number   1
_chemical_formula_structural   Ag27HCO
_chemical_formula_sum   'Ag27 H1 C1 O1'
_cell_volume   1802.31954385
_cell_formula_units_Z   1
loop_
 _symmetry_equiv_pos_site_id
 _symmetry_equiv_pos_as_xyz
  1  'x, y, z'
loop_
 _atom_site_type_symbol
 _atom_site_label
 _atom_site_symmetry_multiplicity
 _atom_site_fract_x
 _atom_site_fract_y
 _atom_site_fract_z
 _atom_site_occupancy
  Ag  Ag0  1  0.33333300  0.00000000  0.45833300  1
  Ag  Ag1  1  0.33333300  0.33333300  0.45833300  1
  Ag  Ag2  1  0.33333300  0.66666700  0.45833300  1
  Ag  Ag3  1  0.66666700  0.00000000  0.45833300  1
  Ag  Ag4  1  0.66666700  0.33333300  0.45833300  1
  Ag  Ag5  1  0.66666700  0.66666700  0.45833300  1
  Ag  Ag6  1  0.00000000  0.00000000  0.45833300  1
  Ag  Ag7  1  0.00000000  0.33333300  0.45833300  1
  Ag  Ag8  1  0.00000000  0.66666700  0.45833300  1
  Ag  Ag9  1  0.33615897  0.00055957  0.62845898  1
  Ag  Ag10  1  0.36986381  0.33536835  0.62960556  1
  Ag  Ag11  1  0.33589221  0.66858283  0.62840073  1
  Ag  Ag12  1  0.66838318  0.00035928  0.62890705  1
  Ag  Ag13  1  0.69076224  0.33324783  0.63013705  1
  Ag  Ag14  1  0.66815388  0.66586794  0.62888544  1
  Ag  Ag15  1  0.00046599  0.99792856  0.62955841  1
  Ag  Ag16  1  0.01180910  0.33045300  0.64242391  1
  Ag  Ag17  1  0.00035094  0.66448051  0.62950440  1
  Ag  Ag18  1  0.17051412  0.16866807  0.54402652  1
  Ag  Ag19  1  0.17063172  0.49751705  0.54418991  1
  Ag  Ag20  1  0.16653306  0.83322570  0.54432754  1
  Ag  Ag21  1  0.50598355  0.16789399  0.54287979  1
  Ag  Ag22  1  0.50586523  0.49955758  0.54274492  1
  Ag  Ag23  1  0.50080972  0.83374681  0.54357745  1
  Ag  Ag24  1  0.84172540  0.16851668  0.54483463  1
  Ag  Ag25  1  0.84159691  0.49708838  0.54470102  1
  Ag  Ag26  1  0.83373471  0.83280496  0.54385494  1
  C  C27  1  0.21151430  0.32517861  0.69421742  1
  H  H28  1  0.16542784  0.31772366  0.77256679  1
  O  O29  1  0.25155389  0.32088253  0.74521780  1
