# generated using pymatgen
data_Ag27H
_symmetry_space_group_name_H-M   'P 1'
_cell_length_a   8.60517300
_cell_length_b   8.60496305
_cell_length_c   24.34014600
_cell_angle_alpha   89.99904118
_cell_angle_beta   89.99896131
_cell_angle_gamma   90.00613242
_symmetry_Int_Tables_number   1
_chemical_formula_structural   Ag27H
_chemical_formula_sum   'Ag27 H1'
_cell_volume   1802.31954385
_cell_formula_units_Z   1
loop_
 _symmetry_equiv_pos_site_id
 _symmetry_equiv_pos_as_xyz
  1  'x, y, z'
loop_
 _atom_site_type_symbol
 _atom_site_label
 _atom_site_symmetry_multiplicity
 _atom_site_fract_x
 _atom_site_fract_y
 _atom_site_fract_z
 _atom_site_occupancy
  Ag  Ag0  1  0.33333300  0.00000000  0.45833300  1
  Ag  Ag1  1  0.33333300  0.33333300  0.45833300  1
  Ag  Ag2  1  0.33333300  0.66666700  0.45833300  1
  Ag  Ag3  1  0.66666700  0.00000000  0.45833300  1
  Ag  Ag4  1  0.66666700  0.33333300  0.45833300  1
  Ag  Ag5  1  0.66666700  0.66666700  0.45833300  1
  Ag  Ag6  1  0.00000000  0.00000000  0.45833300  1
  Ag  Ag7  1  0.00000000  0.33333300  0.45833300  1
  Ag  Ag8  1  0.00000000  0.66666700  0.45833300  1
  Ag  Ag9  1  0.33383143  0.99998988  0.62976468  1
  Ag  Ag10  1  0.33311468  0.33311563  0.63064483  1
  Ag  Ag11  1  0.33311534  0.66685763  0.63064748  1
  Ag  Ag12  1  0.66616782  0.99999226  0.62976597  1
  Ag  Ag13  1  0.66685742  0.33311632  0.63064750  1
  Ag  Ag14  1  0.66685624  0.66685645  0.63064916  1
  Ag  Ag15  1  0.99999945  1.00000000  0.63041443  1
  Ag  Ag16  1  0.99998934  0.33383227  0.62976506  1
  Ag  Ag17  1  0.99999166  0.66616819  0.62976632  1
  Ag  Ag18  1  0.16733083  0.16733130  0.54467772  1
  Ag  Ag19  1  0.16669107  0.49999842  0.54384501  1
  Ag  Ag20  1  0.16733023  0.83266245  0.54467885  1
  Ag  Ag21  1  0.49999815  0.16669141  0.54384498  1
  Ag  Ag22  1  0.49999975  0.50000000  0.54140907  1
  Ag  Ag23  1  0.49999718  0.83329393  0.54384703  1
  Ag  Ag24  1  0.83266232  0.16733064  0.54467887  1
  Ag  Ag25  1  0.83329365  0.49999741  0.54384708  1
  Ag  Ag26  1  0.83266160  0.83266172  0.54468088  1
  H  H27  1  0.49997897  0.49998000  0.64847223  1
