# generated using pymatgen
data_Fe4Mo12HSe16
_symmetry_space_group_name_H-M   'P 1'
_cell_length_a   6.73059675
_cell_length_b   6.68252955
_cell_length_c   28.41042900
_cell_angle_alpha   94.71078376
_cell_angle_beta   91.18717718
_cell_angle_gamma   96.76332947
_symmetry_Int_Tables_number   1
_chemical_formula_structural   Fe4Mo12HSe16
_chemical_formula_sum   'Fe4 Mo12 H1 Se16'
_cell_volume   1264.05235895
_cell_formula_units_Z   1
loop_
 _symmetry_equiv_pos_site_id
 _symmetry_equiv_pos_as_xyz
  1  'x, y, z'
loop_
 _atom_site_type_symbol
 _atom_site_label
 _atom_site_symmetry_multiplicity
 _atom_site_fract_x
 _atom_site_fract_y
 _atom_site_fract_z
 _atom_site_occupancy
  Fe  Fe0  1  0.92047972  0.14880029  0.48055092  1
  Fe  Fe1  1  0.81731692  0.10486058  0.65511598  1
  Fe  Fe2  1  0.08366100  0.85003700  0.25310200  1
  Fe  Fe3  1  0.08642686  0.85094109  0.48681855  1
  Mo  Mo4  1  0.23114514  0.53711638  0.34783752  1
  Mo  Mo5  1  0.22535197  0.53737025  0.58450511  1
  Mo  Mo6  1  0.76833114  0.46055976  0.38765828  1
  Mo  Mo7  1  0.75526062  0.45807982  0.62383698  1
  Mo  Mo8  1  0.41063185  0.22816093  0.37742116  1
  Mo  Mo9  1  0.40084400  0.22360617  0.61509583  1
  Mo  Mo10  1  0.59044080  0.77341724  0.35818905  1
  Mo  Mo11  1  0.58421396  0.77097775  0.59586741  1
  Mo  Mo12  1  0.54876300  0.41297700  0.30450800  1
  Mo  Mo13  1  0.54398329  0.41425413  0.54065153  1
  Mo  Mo14  1  0.44978402  0.58766611  0.43197498  1
  Mo  Mo15  1  0.43780827  0.58167554  0.66602404  1
  Se  Se16  1  0.11536107  0.36178963  0.42386679  1
  Se  Se17  1  0.10180254  0.36338931  0.65932419  1
  Se  Se18  1  0.88453700  0.63734700  0.31138600  1
  Se  Se19  1  0.87912400  0.64103523  0.54932686  1
  Se  Se20  1  0.73361204  0.13562746  0.33427640  1
  Se  Se21  1  0.73113434  0.12611150  0.56928142  1
  Se  Se22  1  0.26001553  0.86560075  0.39986849  1
  Se  Se23  1  0.25786920  0.86330541  0.63827015  1
  Se  Se24  1  0.39326800  0.73478000  0.28166600  1
  Se  Se25  1  0.38998293  0.73374625  0.51829507  1
  Se  Se26  1  0.60689710  0.26502400  0.45460375  1
  Se  Se27  1  0.57860720  0.27936823  0.69760138  1
  Se  Se28  1  0.21444700  0.18780600  0.29890600  1
  Se  Se29  1  0.20977945  0.18891579  0.53524110  1
  Se  Se30  1  0.78471010  0.81139690  0.43724345  1
  Se  Se31  1  0.77973373  0.77659001  0.68078187  1
  H  H32  1  0.90984049  0.10291467  0.70389238  1
