# generated using pymatgen
data_Ag27HCO
_symmetry_space_group_name_H-M   'P 1'
_cell_length_a   8.60496519
_cell_length_b   8.60496881
_cell_length_c   23.47925300
_cell_angle_alpha   90.00483404
_cell_angle_beta   93.49762144
_cell_angle_gamma   119.99565775
_symmetry_Int_Tables_number   1
_chemical_formula_structural   Ag27HCO
_chemical_formula_sum   'Ag27 H1 C1 O1'
_cell_volume   1501.93330901
_cell_formula_units_Z   1
loop_
 _symmetry_equiv_pos_site_id
 _symmetry_equiv_pos_as_xyz
  1  'x, y, z'
loop_
 _atom_site_type_symbol
 _atom_site_label
 _atom_site_symmetry_multiplicity
 _atom_site_fract_x
 _atom_site_fract_y
 _atom_site_fract_z
 _atom_site_occupancy
  Ag  Ag0  1  0.20000000  0.26666700  0.40000000  1
  Ag  Ag1  1  0.20000000  0.60000000  0.40000000  1
  Ag  Ag2  1  0.20000000  0.93333300  0.40000000  1
  Ag  Ag3  1  0.53333300  0.26666700  0.40000000  1
  Ag  Ag4  1  0.53333300  0.60000000  0.40000000  1
  Ag  Ag5  1  0.53333300  0.93333300  0.40000000  1
  Ag  Ag6  1  0.86666700  0.26666700  0.40000000  1
  Ag  Ag7  1  0.86666700  0.60000000  0.40000000  1
  Ag  Ag8  1  0.86666700  0.93333300  0.40000000  1
  Ag  Ag9  1  0.33200224  0.16283078  0.50126687  1
  Ag  Ag10  1  0.33233924  0.49408050  0.50127484  1
  Ag  Ag11  1  0.33160684  0.82832398  0.50140448  1
  Ag  Ag12  1  0.66447576  0.16178170  0.50139033  1
  Ag  Ag13  1  0.66448606  0.49476338  0.50075574  1
  Ag  Ag14  1  0.66446536  0.82844821  0.50113929  1
  Ag  Ag15  1  0.99852465  0.16200349  0.50147839  1
  Ag  Ag16  1  0.99927264  0.49597129  0.50106924  1
  Ag  Ag17  1  0.99910238  0.82868794  0.50110050  1
  Ag  Ag18  1  0.12998206  0.05714504  0.60260417  1
  Ag  Ag19  1  0.12966443  0.39200317  0.60245449  1
  Ag  Ag20  1  0.13155945  0.72553084  0.60289081  1
  Ag  Ag21  1  0.46405466  0.05808020  0.60258564  1
  Ag  Ag22  1  0.46280814  0.39168352  0.60328502  1
  Ag  Ag23  1  0.46457075  0.72640174  0.60263063  1
  Ag  Ag24  1  0.79762919  0.05868807  0.60320423  1
  Ag  Ag25  1  0.80073166  0.39160012  0.60120753  1
  Ag  Ag26  1  0.79944090  0.72824100  0.60119478  1
  C  C27  1  0.53176132  0.42222053  0.69453921  1
  H  H28  1  0.41562340  0.38317908  0.72120901  1
  O  O29  1  0.68202837  0.47613196  0.71526285  1
