# generated using pymatgen
data_Fe4Te16Mo12H3N
_symmetry_space_group_name_H-M   'P 1'
_cell_length_a   7.22312727
_cell_length_b   7.08682392
_cell_length_c   29.37250900
_cell_angle_alpha   91.57772794
_cell_angle_beta   98.12045943
_cell_angle_gamma   93.99332592
_symmetry_Int_Tables_number   1
_chemical_formula_structural   Fe4Te16Mo12H3N
_chemical_formula_sum   'Fe4 Te16 Mo12 H3 N1'
_cell_volume   1483.79736813
_cell_formula_units_Z   1
loop_
 _symmetry_equiv_pos_site_id
 _symmetry_equiv_pos_as_xyz
  1  'x, y, z'
loop_
 _atom_site_type_symbol
 _atom_site_label
 _atom_site_symmetry_multiplicity
 _atom_site_fract_x
 _atom_site_fract_y
 _atom_site_fract_z
 _atom_site_occupancy
  Fe  Fe0  1  0.95494836  0.12108694  0.46646482  1
  Fe  Fe1  1  0.85829272  0.08059856  0.66458075  1
  Fe  Fe2  1  0.05693100  0.86054300  0.27656700  1
  Fe  Fe3  1  0.04703505  0.87657184  0.52212727  1
  Mo  Mo4  1  0.24912594  0.55182297  0.34883486  1
  Mo  Mo5  1  0.25786401  0.53310402  0.59745714  1
  Mo  Mo6  1  0.75199472  0.45012272  0.39615818  1
  Mo  Mo7  1  0.76543640  0.42692840  0.63948657  1
  Mo  Mo8  1  0.41611255  0.24846225  0.38197593  1
  Mo  Mo9  1  0.43288315  0.22330942  0.62749423  1
  Mo  Mo10  1  0.57870993  0.75172814  0.36279628  1
  Mo  Mo11  1  0.59395474  0.73654236  0.60967598  1
  Mo  Mo12  1  0.53260700  0.41261200  0.31013000  1
  Mo  Mo13  1  0.54258467  0.40778512  0.55518153  1
  Mo  Mo14  1  0.46459853  0.58599574  0.43616651  1
  Mo  Mo15  1  0.48455764  0.55409393  0.68041054  1
  Te  Te16  1  0.13225131  0.38291521  0.42660936  1
  Te  Te17  1  0.14376272  0.34228756  0.67495634  1
  Te  Te18  1  0.86624900  0.61870000  0.31855000  1
  Te  Te19  1  0.87975255  0.61158425  0.56463575  1
  Te  Te20  1  0.73106900  0.11857500  0.34560400  1
  Te  Te21  1  0.73240660  0.09418718  0.57974021  1
  Te  Te22  1  0.26798632  0.88130503  0.40099314  1
  Te  Te23  1  0.28943987  0.85910531  0.65142068  1
  Te  Te24  1  0.38690600  0.74931100  0.27459600  1
  Te  Te25  1  0.37905062  0.73861188  0.52267855  1
  Te  Te26  1  0.61943299  0.24962313  0.46863157  1
  Te  Te27  1  0.64176149  0.23138343  0.71545699  1
  Te  Te28  1  0.18432800  0.21398100  0.29715900  1
  Te  Te29  1  0.19685761  0.21365018  0.54220796  1
  Te  Te30  1  0.80910948  0.77813586  0.44884460  1
  Te  Te31  1  0.83347261  0.74638365  0.69746466  1
  N  N32  1  0.45871940  0.61519853  0.75643292  1
  H  H33  1  0.58745856  0.64802740  0.77600330  1
  H  H34  1  0.37749103  0.72467230  0.76183228  1
  H  H35  1  0.40015942  0.49865410  0.77099144  1
