# generated using pymatgen
data_Ag27HCO
_symmetry_space_group_name_H-M   'P 1'
_cell_length_a   8.60517300
_cell_length_b   8.60496305
_cell_length_c   24.34014600
_cell_angle_alpha   89.99904118
_cell_angle_beta   89.99896131
_cell_angle_gamma   90.00613242
_symmetry_Int_Tables_number   1
_chemical_formula_structural   Ag27HCO
_chemical_formula_sum   'Ag27 H1 C1 O1'
_cell_volume   1802.31954385
_cell_formula_units_Z   1
loop_
 _symmetry_equiv_pos_site_id
 _symmetry_equiv_pos_as_xyz
  1  'x, y, z'
loop_
 _atom_site_type_symbol
 _atom_site_label
 _atom_site_symmetry_multiplicity
 _atom_site_fract_x
 _atom_site_fract_y
 _atom_site_fract_z
 _atom_site_occupancy
  Ag  Ag0  1  0.33333300  0.00000000  0.45833300  1
  Ag  Ag1  1  0.33333300  0.33333300  0.45833300  1
  Ag  Ag2  1  0.33333300  0.66666700  0.45833300  1
  Ag  Ag3  1  0.66666700  0.00000000  0.45833300  1
  Ag  Ag4  1  0.66666700  0.33333300  0.45833300  1
  Ag  Ag5  1  0.66666700  0.66666700  0.45833300  1
  Ag  Ag6  1  0.00000000  0.00000000  0.45833300  1
  Ag  Ag7  1  0.00000000  0.33333300  0.45833300  1
  Ag  Ag8  1  0.00000000  0.66666700  0.45833300  1
  Ag  Ag9  1  0.33357697  0.99844106  0.62936706  1
  Ag  Ag10  1  0.32451851  0.33114530  0.63154126  1
  Ag  Ag11  1  0.33190440  0.66565784  0.62905107  1
  Ag  Ag12  1  0.66783414  0.99970967  0.62866753  1
  Ag  Ag13  1  0.66753828  0.33363079  0.62838362  1
  Ag  Ag14  1  0.66750895  0.66817243  0.62830528  1
  Ag  Ag15  1  0.99985669  0.00035083  0.62877828  1
  Ag  Ag16  1  0.99462951  0.33354677  0.62887533  1
  Ag  Ag17  1  0.99893200  0.66662501  0.62885097  1
  Ag  Ag18  1  0.16666828  0.16724913  0.54342699  1
  Ag  Ag19  1  0.16617420  0.49881301  0.54334239  1
  Ag  Ag20  1  0.16698245  0.83313332  0.54388448  1
  Ag  Ag21  1  0.49835820  0.16737699  0.54379508  1
  Ag  Ag22  1  0.49841591  0.49918507  0.54366755  1
  Ag  Ag23  1  0.49920862  0.83307867  0.54381986  1
  Ag  Ag24  1  0.83227525  0.16659162  0.54352025  1
  Ag  Ag25  1  0.83210903  0.50025936  0.54343578  1
  Ag  Ag26  1  0.83390700  0.83373370  0.54319708  1
  C  C27  1  0.38265652  0.35186871  0.71705992  1
  H  H28  1  0.28717417  0.32672800  0.74698424  1
  O  O29  1  0.51150382  0.38542801  0.73403824  1
