# generated using pymatgen
data_Fe2Te8Mo6N
_symmetry_space_group_name_H-M   'P 1'
_cell_length_a   7.22312727
_cell_length_b   7.08682392
_cell_length_c   29.37250900
_cell_angle_alpha   91.57772794
_cell_angle_beta   98.12045943
_cell_angle_gamma   93.99332592
_symmetry_Int_Tables_number   1
_chemical_formula_structural   Fe2Te8Mo6N
_chemical_formula_sum   'Fe4 Te16 Mo12 N2'
_cell_volume   1483.79736813
_cell_formula_units_Z   2
loop_
 _symmetry_equiv_pos_site_id
 _symmetry_equiv_pos_as_xyz
  1  'x, y, z'
loop_
 _atom_site_type_symbol
 _atom_site_label
 _atom_site_symmetry_multiplicity
 _atom_site_fract_x
 _atom_site_fract_y
 _atom_site_fract_z
 _atom_site_occupancy
  Fe  Fe0  1  0.94722534  0.13938507  0.46957886  1
  Fe  Fe1  1  0.85418791  0.09084369  0.66504082  1
  Fe  Fe2  1  0.05693100  0.86054300  0.27656700  1
  Fe  Fe3  1  0.05330100  0.86501241  0.52241689  1
  Mo  Mo4  1  0.24913263  0.55280829  0.34886370  1
  Mo  Mo5  1  0.25196795  0.53872643  0.59794580  1
  Mo  Mo6  1  0.75261449  0.45256033  0.39639685  1
  Mo  Mo7  1  0.76116661  0.43418652  0.64028029  1
  Mo  Mo8  1  0.41612022  0.25071793  0.38207540  1
  Mo  Mo9  1  0.42795243  0.22826533  0.62843740  1
  Mo  Mo10  1  0.57895171  0.75317297  0.36263597  1
  Mo  Mo11  1  0.58837515  0.74388894  0.61005019  1
  Mo  Mo12  1  0.53260700  0.41261200  0.31013000  1
  Mo  Mo13  1  0.53669904  0.41247905  0.55585140  1
  Mo  Mo14  1  0.46624157  0.59008315  0.43607703  1
  Mo  Mo15  1  0.47993145  0.56021260  0.68174902  1
  Te  Te16  1  0.13241819  0.38362251  0.42680097  1
  Te  Te17  1  0.14015863  0.34945704  0.67560721  1
  Te  Te18  1  0.86624900  0.61870000  0.31855000  1
  Te  Te19  1  0.87484083  0.61826162  0.56548252  1
  Te  Te20  1  0.73106900  0.11857500  0.34560400  1
  Te  Te21  1  0.72702387  0.09983283  0.58044276  1
  Te  Te22  1  0.26844491  0.88317747  0.40047004  1
  Te  Te23  1  0.28415541  0.86363306  0.65222540  1
  Te  Te24  1  0.38690600  0.74931100  0.27459600  1
  Te  Te25  1  0.38014774  0.74136752  0.52242558  1
  Te  Te26  1  0.61346534  0.25445668  0.46918651  1
  Te  Te27  1  0.63489424  0.23730000  0.71607133  1
  Te  Te28  1  0.18432800  0.21398100  0.29715900  1
  Te  Te29  1  0.19076550  0.21381219  0.54372915  1
  Te  Te30  1  0.81395268  0.78605093  0.44891769  1
  Te  Te31  1  0.82720136  0.75427670  0.69774463  1
  N  N32  1  0.46683640  0.61679893  0.75288374  1
  N  N33  1  0.46607808  0.63244761  0.79088289  1
