# generated using pymatgen
data_Ag27H3N
_symmetry_space_group_name_H-M   'P 1'
_cell_length_a   8.60517300
_cell_length_b   8.60496305
_cell_length_c   24.34014600
_cell_angle_alpha   89.99904118
_cell_angle_beta   89.99896131
_cell_angle_gamma   90.00613242
_symmetry_Int_Tables_number   1
_chemical_formula_structural   Ag27H3N
_chemical_formula_sum   'Ag27 H3 N1'
_cell_volume   1802.31954385
_cell_formula_units_Z   1
loop_
 _symmetry_equiv_pos_site_id
 _symmetry_equiv_pos_as_xyz
  1  'x, y, z'
loop_
 _atom_site_type_symbol
 _atom_site_label
 _atom_site_symmetry_multiplicity
 _atom_site_fract_x
 _atom_site_fract_y
 _atom_site_fract_z
 _atom_site_occupancy
  Ag  Ag0  1  0.33333300  0.00000000  0.45833300  1
  Ag  Ag1  1  0.33333300  0.33333300  0.45833300  1
  Ag  Ag2  1  0.33333300  0.66666700  0.45833300  1
  Ag  Ag3  1  0.66666700  0.00000000  0.45833300  1
  Ag  Ag4  1  0.66666700  0.33333300  0.45833300  1
  Ag  Ag5  1  0.66666700  0.66666700  0.45833300  1
  Ag  Ag6  1  0.00000000  0.00000000  0.45833300  1
  Ag  Ag7  1  0.00000000  0.33333300  0.45833300  1
  Ag  Ag8  1  0.00000000  0.66666700  0.45833300  1
  Ag  Ag9  1  0.33349510  0.99771336  0.62746025  1
  Ag  Ag10  1  0.33383012  0.33312582  0.63119022  1
  Ag  Ag11  1  0.33345227  0.66878926  0.62757785  1
  Ag  Ag12  1  0.66668998  0.99992698  0.62772090  1
  Ag  Ag13  1  0.66913999  0.33321143  0.62749864  1
  Ag  Ag14  1  0.66671199  0.66656024  0.62764099  1
  Ag  Ag15  1  0.00004588  0.99989285  0.62766193  1
  Ag  Ag16  1  0.99805898  0.33324302  0.62754207  1
  Ag  Ag17  1  0.99996313  0.66664777  0.62758771  1
  Ag  Ag18  1  0.16805934  0.16793052  0.54351290  1
  Ag  Ag19  1  0.16807879  0.49867832  0.54352681  1
  Ag  Ag20  1  0.16627915  0.83329850  0.54283891  1
  Ag  Ag21  1  0.49879768  0.16796469  0.54351729  1
  Ag  Ag22  1  0.49875731  0.49863608  0.54352642  1
  Ag  Ag23  1  0.50046354  0.83329414  0.54283225  1
  Ag  Ag24  1  0.83348742  0.16615037  0.54284614  1
  Ag  Ag25  1  0.83347987  0.50033475  0.54282548  1
  Ag  Ag26  1  0.83330722  0.83335553  0.54291095  1
  N  N27  1  0.32924091  0.33436754  0.72459405  1
  H  H28  1  0.43527640  0.36379514  0.74102145  1
  H  H29  1  0.24981375  0.41266658  0.73981151  1
  H  H30  1  0.30018026  0.22759978  0.74049573  1
