# generated using pymatgen
data_Ag27H3N
_symmetry_space_group_name_H-M   'P 1'
_cell_length_a   8.60496519
_cell_length_b   8.60496881
_cell_length_c   23.47925300
_cell_angle_alpha   90.00483404
_cell_angle_beta   93.49762144
_cell_angle_gamma   119.99565775
_symmetry_Int_Tables_number   1
_chemical_formula_structural   Ag27H3N
_chemical_formula_sum   'Ag27 H3 N1'
_cell_volume   1501.93330901
_cell_formula_units_Z   1
loop_
 _symmetry_equiv_pos_site_id
 _symmetry_equiv_pos_as_xyz
  1  'x, y, z'
loop_
 _atom_site_type_symbol
 _atom_site_label
 _atom_site_symmetry_multiplicity
 _atom_site_fract_x
 _atom_site_fract_y
 _atom_site_fract_z
 _atom_site_occupancy
  Ag  Ag0  1  0.20000000  0.26666700  0.40000000  1
  Ag  Ag1  1  0.20000000  0.60000000  0.40000000  1
  Ag  Ag2  1  0.20000000  0.93333300  0.40000000  1
  Ag  Ag3  1  0.53333300  0.26666700  0.40000000  1
  Ag  Ag4  1  0.53333300  0.60000000  0.40000000  1
  Ag  Ag5  1  0.53333300  0.93333300  0.40000000  1
  Ag  Ag6  1  0.86666700  0.26666700  0.40000000  1
  Ag  Ag7  1  0.86666700  0.60000000  0.40000000  1
  Ag  Ag8  1  0.86666700  0.93333300  0.40000000  1
  Ag  Ag9  1  0.33414672  0.16810570  0.50214098  1
  Ag  Ag10  1  0.33407092  0.49926739  0.50210839  1
  Ag  Ag11  1  0.33252167  0.83294739  0.50099847  1
  Ag  Ag12  1  0.66670419  0.16647274  0.50156561  1
  Ag  Ag13  1  0.66498737  0.49910716  0.50237510  1
  Ag  Ag14  1  0.66680643  0.83344222  0.50154052  1
  Ag  Ag15  1  0.99967919  0.16647095  0.50144359  1
  Ag  Ag16  1  0.00004894  0.50050717  0.50097177  1
  Ag  Ag17  1  0.00002032  0.83268521  0.50094559  1
  Ag  Ag18  1  0.13028155  0.06385111  0.60201291  1
  Ag  Ag19  1  0.13031473  0.39958952  0.60216412  1
  Ag  Ag20  1  0.13341193  0.73327816  0.60331286  1
  Ag  Ag21  1  0.46673499  0.06448641  0.60244473  1
  Ag  Ag22  1  0.46657648  0.39996924  0.60451024  1
  Ag  Ag23  1  0.46673165  0.73568217  0.60222367  1
  Ag  Ag24  1  0.80022798  0.06667867  0.60405701  1
  Ag  Ag25  1  0.80165038  0.39963415  0.60251888  1
  Ag  Ag26  1  0.80175386  0.73521302  0.60260068  1
  N  N27  1  0.47193013  0.40463508  0.70245961  1
  H  H28  1  0.59748546  0.44036147  0.72076901  1
  H  H29  1  0.43808995  0.49494268  0.71778939  1
  H  H30  1  0.38330586  0.28140378  0.71741968  1
