# generated using pymatgen
data_Ag27HO
_symmetry_space_group_name_H-M   'P 1'
_cell_length_a   8.60517300
_cell_length_b   8.60496305
_cell_length_c   24.34014600
_cell_angle_alpha   89.99904118
_cell_angle_beta   89.99896131
_cell_angle_gamma   90.00613242
_symmetry_Int_Tables_number   1
_chemical_formula_structural   Ag27HO
_chemical_formula_sum   'Ag27 H1 O1'
_cell_volume   1802.31954385
_cell_formula_units_Z   1
loop_
 _symmetry_equiv_pos_site_id
 _symmetry_equiv_pos_as_xyz
  1  'x, y, z'
loop_
 _atom_site_type_symbol
 _atom_site_label
 _atom_site_symmetry_multiplicity
 _atom_site_fract_x
 _atom_site_fract_y
 _atom_site_fract_z
 _atom_site_occupancy
  Ag  Ag0  1  0.33333300  0.00000000  0.45833300  1
  Ag  Ag1  1  0.33333300  0.33333300  0.45833300  1
  Ag  Ag2  1  0.33333300  0.66666700  0.45833300  1
  Ag  Ag3  1  0.66666700  0.00000000  0.45833300  1
  Ag  Ag4  1  0.66666700  0.33333300  0.45833300  1
  Ag  Ag5  1  0.66666700  0.66666700  0.45833300  1
  Ag  Ag6  1  0.00000000  0.00000000  0.45833300  1
  Ag  Ag7  1  0.00000000  0.33333300  0.45833300  1
  Ag  Ag8  1  0.00000000  0.66666700  0.45833300  1
  Ag  Ag9  1  0.33337180  0.99843145  0.62905484  1
  Ag  Ag10  1  0.33326275  0.33326422  0.62556533  1
  Ag  Ag11  1  0.33337112  0.66827110  0.62904428  1
  Ag  Ag12  1  0.66717506  0.99948324  0.62802575  1
  Ag  Ag13  1  0.66827093  0.33337153  0.62904370  1
  Ag  Ag14  1  0.66717611  0.66717638  0.62800156  1
  Ag  Ag15  1  0.99948301  0.99948335  0.62803903  1
  Ag  Ag16  1  0.99843020  0.33337214  0.62905424  1
  Ag  Ag17  1  0.99948281  0.66717545  0.62802579  1
  Ag  Ag18  1  0.16683041  0.16683040  0.54307051  1
  Ag  Ag19  1  0.16684420  0.49982872  0.54306854  1
  Ag  Ag20  1  0.16694471  0.83336575  0.54363466  1
  Ag  Ag21  1  0.49982809  0.16684418  0.54306856  1
  Ag  Ag22  1  0.49981381  0.49981423  0.54306254  1
  Ag  Ag23  1  0.49970657  0.83336890  0.54362108  1
  Ag  Ag24  1  0.83336548  0.16694445  0.54363446  1
  Ag  Ag25  1  0.83336873  0.49970709  0.54362089  1
  Ag  Ag26  1  0.83336141  0.83336154  0.54298828  1
  O  O27  1  0.33403786  0.33403466  0.71121528  1
  H  H28  1  0.33311086  0.33311245  0.75135148  1
