# generated using pymatgen
data_Ag27HO
_symmetry_space_group_name_H-M   'P 1'
_cell_length_a   8.60517300
_cell_length_b   8.60496305
_cell_length_c   24.34014600
_cell_angle_alpha   89.99904118
_cell_angle_beta   89.99896131
_cell_angle_gamma   90.00613242
_symmetry_Int_Tables_number   1
_chemical_formula_structural   Ag27HO
_chemical_formula_sum   'Ag27 H1 O1'
_cell_volume   1802.31954385
_cell_formula_units_Z   1
loop_
 _symmetry_equiv_pos_site_id
 _symmetry_equiv_pos_as_xyz
  1  'x, y, z'
loop_
 _atom_site_type_symbol
 _atom_site_label
 _atom_site_symmetry_multiplicity
 _atom_site_fract_x
 _atom_site_fract_y
 _atom_site_fract_z
 _atom_site_occupancy
  Ag  Ag0  1  0.33333300  0.00000000  0.45833300  1
  Ag  Ag1  1  0.33333300  0.33333300  0.45833300  1
  Ag  Ag2  1  0.33333300  0.66666700  0.45833300  1
  Ag  Ag3  1  0.66666700  0.00000000  0.45833300  1
  Ag  Ag4  1  0.66666700  0.33333300  0.45833300  1
  Ag  Ag5  1  0.66666700  0.66666700  0.45833300  1
  Ag  Ag6  1  0.00000000  0.00000000  0.45833300  1
  Ag  Ag7  1  0.00000000  0.33333300  0.45833300  1
  Ag  Ag8  1  0.00000000  0.66666700  0.45833300  1
  Ag  Ag9  1  0.33336911  0.99847878  0.62898752  1
  Ag  Ag10  1  0.33332043  0.33332157  0.62581753  1
  Ag  Ag11  1  0.33336896  0.66822508  0.62897457  1
  Ag  Ag12  1  0.66713734  0.99951627  0.62798833  1
  Ag  Ag13  1  0.66822493  0.33336931  0.62897400  1
  Ag  Ag14  1  0.66713853  0.66713875  0.62796453  1
  Ag  Ag15  1  0.99951570  0.99951601  0.62800064  1
  Ag  Ag16  1  0.99847760  0.33336944  0.62898695  1
  Ag  Ag17  1  0.99951582  0.66713761  0.62798836  1
  Ag  Ag18  1  0.16693070  0.16693069  0.54305238  1
  Ag  Ag19  1  0.16693746  0.49972827  0.54304736  1
  Ag  Ag20  1  0.16693727  0.83336680  0.54360350  1
  Ag  Ag21  1  0.49972771  0.16693746  0.54304736  1
  Ag  Ag22  1  0.49972001  0.49972044  0.54303831  1
  Ag  Ag23  1  0.49970736  0.83336918  0.54358969  1
  Ag  Ag24  1  0.83336657  0.16693703  0.54360332  1
  Ag  Ag25  1  0.83336903  0.49970789  0.54358955  1
  Ag  Ag26  1  0.83336024  0.83336038  0.54300073  1
  O  O27  1  0.33380541  0.33380338  0.71093471  1
  H  H28  1  0.33323252  0.33323344  0.75108513  1
