# generated using pymatgen
data_Fe4Te16Mo12HN2
_symmetry_space_group_name_H-M   'P 1'
_cell_length_a   7.22312727
_cell_length_b   7.08682392
_cell_length_c   29.37250900
_cell_angle_alpha   91.57772794
_cell_angle_beta   98.12045943
_cell_angle_gamma   93.99332592
_symmetry_Int_Tables_number   1
_chemical_formula_structural   Fe4Te16Mo12HN2
_chemical_formula_sum   'Fe4 Te16 Mo12 H1 N2'
_cell_volume   1483.79736813
_cell_formula_units_Z   1
loop_
 _symmetry_equiv_pos_site_id
 _symmetry_equiv_pos_as_xyz
  1  'x, y, z'
loop_
 _atom_site_type_symbol
 _atom_site_label
 _atom_site_symmetry_multiplicity
 _atom_site_fract_x
 _atom_site_fract_y
 _atom_site_fract_z
 _atom_site_occupancy
  Fe  Fe0  1  0.94207697  0.13261424  0.46541683  1
  Fe  Fe1  1  0.87615458  0.11723635  0.69315088  1
  Fe  Fe2  1  0.05693100  0.86054300  0.27656700  1
  Fe  Fe3  1  0.04841659  0.85909120  0.52297125  1
  Mo  Mo4  1  0.24916320  0.55159050  0.34839515  1
  Mo  Mo5  1  0.23181520  0.54368608  0.59217422  1
  Mo  Mo6  1  0.75186705  0.45021089  0.39638216  1
  Mo  Mo7  1  0.73365618  0.43715212  0.64069803  1
  Mo  Mo8  1  0.41559828  0.24798101  0.38183150  1
  Mo  Mo9  1  0.40002008  0.23729152  0.62581817  1
  Mo  Mo10  1  0.57874445  0.75188055  0.36255294  1
  Mo  Mo11  1  0.57157049  0.74316553  0.60777343  1
  Mo  Mo12  1  0.53260700  0.41261200  0.31013000  1
  Mo  Mo13  1  0.52453657  0.40448230  0.55380447  1
  Mo  Mo14  1  0.46439502  0.58671293  0.43563768  1
  Mo  Mo15  1  0.45047326  0.57133305  0.67506127  1
  Te  Te16  1  0.13138062  0.38244155  0.42564141  1
  Te  Te17  1  0.11583871  0.37879833  0.67132674  1
  Te  Te18  1  0.86624900  0.61870000  0.31855000  1
  Te  Te19  1  0.85568945  0.61402901  0.56411667  1
  Te  Te20  1  0.73106900  0.11857500  0.34560400  1
  Te  Te21  1  0.72243662  0.10525383  0.59007332  1
  Te  Te22  1  0.26774806  0.88132998  0.40000554  1
  Te  Te23  1  0.25620410  0.87331215  0.64649777  1
  Te  Te24  1  0.38690600  0.74931100  0.27459600  1
  Te  Te25  1  0.37732198  0.74412906  0.52008651  1
  Te  Te26  1  0.61261529  0.24840381  0.46933437  1
  Te  Te27  1  0.57864461  0.25043957  0.71492143  1
  Te  Te28  1  0.18432800  0.21398100  0.29715900  1
  Te  Te29  1  0.17441831  0.21332835  0.53948797  1
  Te  Te30  1  0.81331126  0.78009688  0.44913271  1
  Te  Te31  1  0.79329804  0.75297700  0.69840783  1
  N  N32  1  0.96797292  0.11433906  0.75048268  1
  N  N33  1  0.94590207  0.11002919  0.79040462  1
  H  H34  1  0.06410479  0.10349154  0.81501919  1
