# generated using pymatgen
data_Fe2Mo6Se8N
_symmetry_space_group_name_H-M   'P 1'
_cell_length_a   6.73059675
_cell_length_b   6.68252955
_cell_length_c   28.41042900
_cell_angle_alpha   94.71078376
_cell_angle_beta   91.18717718
_cell_angle_gamma   96.76332947
_symmetry_Int_Tables_number   1
_chemical_formula_structural   Fe2Mo6Se8N
_chemical_formula_sum   'Fe4 Mo12 Se16 N2'
_cell_volume   1264.05235895
_cell_formula_units_Z   2
loop_
 _symmetry_equiv_pos_site_id
 _symmetry_equiv_pos_as_xyz
  1  'x, y, z'
loop_
 _atom_site_type_symbol
 _atom_site_label
 _atom_site_symmetry_multiplicity
 _atom_site_fract_x
 _atom_site_fract_y
 _atom_site_fract_z
 _atom_site_occupancy
  Fe  Fe0  1  0.92168412  0.14975073  0.47918427  1
  Fe  Fe1  1  0.81509738  0.10615094  0.65031958  1
  Fe  Fe2  1  0.08366100  0.85003700  0.25310200  1
  Fe  Fe3  1  0.08408722  0.85145573  0.48738855  1
  Mo  Mo4  1  0.23099618  0.53723064  0.34764009  1
  Mo  Mo5  1  0.22517712  0.53994511  0.58445634  1
  Mo  Mo6  1  0.76851403  0.46023717  0.38746117  1
  Mo  Mo7  1  0.75703873  0.46053687  0.62347342  1
  Mo  Mo8  1  0.41054006  0.22796848  0.37724180  1
  Mo  Mo9  1  0.40020443  0.22661874  0.61446129  1
  Mo  Mo10  1  0.59056554  0.77357994  0.35806996  1
  Mo  Mo11  1  0.58352056  0.77309784  0.59481189  1
  Mo  Mo12  1  0.54876300  0.41297700  0.30450800  1
  Mo  Mo13  1  0.54305443  0.41626138  0.54001566  1
  Mo  Mo14  1  0.45021742  0.58787662  0.43176882  1
  Mo  Mo15  1  0.43917350  0.58461599  0.66550787  1
  Se  Se16  1  0.11601593  0.36285056  0.42350959  1
  Se  Se17  1  0.10402706  0.36309591  0.66015489  1
  Se  Se18  1  0.88453700  0.63734700  0.31138600  1
  Se  Se19  1  0.87905828  0.64243859  0.54869535  1
  Se  Se20  1  0.73369208  0.13534099  0.33411560  1
  Se  Se21  1  0.72637038  0.12748158  0.56739275  1
  Se  Se22  1  0.26035636  0.86546009  0.39969724  1
  Se  Se23  1  0.25947728  0.86644595  0.63783519  1
  Se  Se24  1  0.39326800  0.73478000  0.28166600  1
  Se  Se25  1  0.38817844  0.73531623  0.51773899  1
  Se  Se26  1  0.60612984  0.26473576  0.45429628  1
  Se  Se27  1  0.58403007  0.28319869  0.69637675  1
  Se  Se28  1  0.21444700  0.18780600  0.29890600  1
  Se  Se29  1  0.20807387  0.19228533  0.53480111  1
  Se  Se30  1  0.78558244  0.81033345  0.43691009  1
  Se  Se31  1  0.78278168  0.78227582  0.67915639  1
  N  N32  1  0.96330610  0.14354639  0.76409343  1
  N  N33  1  0.85921443  0.12607147  0.79363908  1
