# generated using pymatgen
data_Ag27H
_symmetry_space_group_name_H-M   'P 1'
_cell_length_a   8.60517300
_cell_length_b   8.60496305
_cell_length_c   24.34014600
_cell_angle_alpha   89.99904118
_cell_angle_beta   89.99896131
_cell_angle_gamma   90.00613242
_symmetry_Int_Tables_number   1
_chemical_formula_structural   Ag27H
_chemical_formula_sum   'Ag27 H1'
_cell_volume   1802.31954385
_cell_formula_units_Z   1
loop_
 _symmetry_equiv_pos_site_id
 _symmetry_equiv_pos_as_xyz
  1  'x, y, z'
loop_
 _atom_site_type_symbol
 _atom_site_label
 _atom_site_symmetry_multiplicity
 _atom_site_fract_x
 _atom_site_fract_y
 _atom_site_fract_z
 _atom_site_occupancy
  Ag  Ag0  1  0.33333300  0.00000000  0.45833300  1
  Ag  Ag1  1  0.33333300  0.33333300  0.45833300  1
  Ag  Ag2  1  0.33333300  0.66666700  0.45833300  1
  Ag  Ag3  1  0.66666700  0.00000000  0.45833300  1
  Ag  Ag4  1  0.66666700  0.33333300  0.45833300  1
  Ag  Ag5  1  0.66666700  0.66666700  0.45833300  1
  Ag  Ag6  1  0.00000000  0.00000000  0.45833300  1
  Ag  Ag7  1  0.00000000  0.33333300  0.45833300  1
  Ag  Ag8  1  0.00000000  0.66666700  0.45833300  1
  Ag  Ag9  1  0.33338862  0.00018950  0.62940758  1
  Ag  Ag10  1  0.33334497  0.33334567  0.63028509  1
  Ag  Ag11  1  0.33338733  0.66644520  0.62939436  1
  Ag  Ag12  1  0.66699585  0.99967682  0.62758123  1
  Ag  Ag13  1  0.66644455  0.33338769  0.62939385  1
  Ag  Ag14  1  0.66700560  0.66700609  0.62756247  1
  Ag  Ag15  1  0.99967505  0.99967554  0.62759476  1
  Ag  Ag16  1  0.00018890  0.33338904  0.62940702  1
  Ag  Ag17  1  0.99967634  0.66699624  0.62758120  1
  Ag  Ag18  1  0.16779528  0.16779492  0.54310414  1
  Ag  Ag19  1  0.16780009  0.49893158  0.54309497  1
  Ag  Ag20  1  0.16796652  0.83339017  0.54370431  1
  Ag  Ag21  1  0.49893079  0.16779980  0.54309492  1
  Ag  Ag22  1  0.49892819  0.49892901  0.54308515  1
  Ag  Ag23  1  0.49872506  0.83338932  0.54369070  1
  Ag  Ag24  1  0.83338987  0.16796617  0.54370414  1
  Ag  Ag25  1  0.83338893  0.49872574  0.54369055  1
  Ag  Ag26  1  0.83337741  0.83337757  0.54256865  1
  H  H27  1  0.33333609  0.33333581  0.69826426  1
