# generated using pymatgen
data_Fe4Te16Mo12H
_symmetry_space_group_name_H-M   'P 1'
_cell_length_a   7.22312727
_cell_length_b   7.08682392
_cell_length_c   29.37250900
_cell_angle_alpha   91.57772794
_cell_angle_beta   98.12045943
_cell_angle_gamma   93.99332592
_symmetry_Int_Tables_number   1
_chemical_formula_structural   Fe4Te16Mo12H
_chemical_formula_sum   'Fe4 Te16 Mo12 H1'
_cell_volume   1483.79736813
_cell_formula_units_Z   1
loop_
 _symmetry_equiv_pos_site_id
 _symmetry_equiv_pos_as_xyz
  1  'x, y, z'
loop_
 _atom_site_type_symbol
 _atom_site_label
 _atom_site_symmetry_multiplicity
 _atom_site_fract_x
 _atom_site_fract_y
 _atom_site_fract_z
 _atom_site_occupancy
  Fe  Fe0  1  0.94733238  0.13899792  0.46965175  1
  Fe  Fe1  1  0.84641560  0.09302610  0.66559251  1
  Fe  Fe2  1  0.05693100  0.86054300  0.27656700  1
  Fe  Fe3  1  0.05290010  0.86211792  0.52246474  1
  Mo  Mo4  1  0.24915427  0.55250812  0.34886972  1
  Mo  Mo5  1  0.24918759  0.53648044  0.59759113  1
  Mo  Mo6  1  0.75271008  0.45230647  0.39642431  1
  Mo  Mo7  1  0.76152745  0.43384040  0.64041230  1
  Mo  Mo8  1  0.41614679  0.25012394  0.38208630  1
  Mo  Mo9  1  0.42936848  0.22328355  0.62871121  1
  Mo  Mo10  1  0.57884884  0.75308255  0.36264928  1
  Mo  Mo11  1  0.58733260  0.74450850  0.60990534  1
  Mo  Mo12  1  0.53260700  0.41261200  0.31013000  1
  Mo  Mo13  1  0.53511667  0.41128658  0.55655338  1
  Mo  Mo14  1  0.46607923  0.58931255  0.43598269  1
  Mo  Mo15  1  0.47808645  0.56036606  0.68004326  1
  Te  Te16  1  0.13247727  0.38258314  0.42685891  1
  Te  Te17  1  0.13953997  0.34887658  0.67622926  1
  Te  Te18  1  0.86624900  0.61870000  0.31855000  1
  Te  Te19  1  0.87300230  0.61740656  0.56550728  1
  Te  Te20  1  0.73106900  0.11857500  0.34560400  1
  Te  Te21  1  0.72814420  0.09869420  0.58038488  1
  Te  Te22  1  0.26835623  0.88281105  0.40044978  1
  Te  Te23  1  0.28283054  0.86226429  0.65229738  1
  Te  Te24  1  0.38690600  0.74931100  0.27459600  1
  Te  Te25  1  0.37909024  0.73917430  0.52232132  1
  Te  Te26  1  0.61328561  0.25396283  0.46933242  1
  Te  Te27  1  0.63343251  0.24423489  0.71742789  1
  Te  Te28  1  0.18432800  0.21398100  0.29715900  1
  Te  Te29  1  0.18914578  0.21005586  0.54408737  1
  Te  Te30  1  0.81404977  0.78570478  0.44890163  1
  Te  Te31  1  0.82076885  0.75683081  0.69825966  1
  H  H32  1  0.46233596  0.61883582  0.73733165  1
