# generated using pymatgen
data_Fe4Te16Mo12H3N
_symmetry_space_group_name_H-M   'P 1'
_cell_length_a   7.22312727
_cell_length_b   7.08682392
_cell_length_c   29.37250900
_cell_angle_alpha   91.57772794
_cell_angle_beta   98.12045943
_cell_angle_gamma   93.99332592
_symmetry_Int_Tables_number   1
_chemical_formula_structural   Fe4Te16Mo12H3N
_chemical_formula_sum   'Fe4 Te16 Mo12 H3 N1'
_cell_volume   1483.79736813
_cell_formula_units_Z   1
loop_
 _symmetry_equiv_pos_site_id
 _symmetry_equiv_pos_as_xyz
  1  'x, y, z'
loop_
 _atom_site_type_symbol
 _atom_site_label
 _atom_site_symmetry_multiplicity
 _atom_site_fract_x
 _atom_site_fract_y
 _atom_site_fract_z
 _atom_site_occupancy
  Fe  Fe0  1  0.95409319  0.12278023  0.46790642  1
  Fe  Fe1  1  0.85805586  0.08656481  0.66471580  1
  Fe  Fe2  1  0.05693100  0.86054300  0.27656700  1
  Fe  Fe3  1  0.04858549  0.87674307  0.52218830  1
  Mo  Mo4  1  0.24910231  0.55187289  0.34887465  1
  Mo  Mo5  1  0.25783263  0.53594039  0.59759597  1
  Mo  Mo6  1  0.75197744  0.45026980  0.39623279  1
  Mo  Mo7  1  0.76514820  0.43051424  0.63963334  1
  Mo  Mo8  1  0.41599508  0.24871767  0.38199773  1
  Mo  Mo9  1  0.43301665  0.22610604  0.62776038  1
  Mo  Mo10  1  0.57863112  0.75193608  0.36281788  1
  Mo  Mo11  1  0.59358717  0.73954334  0.60971195  1
  Mo  Mo12  1  0.53260700  0.41261200  0.31013000  1
  Mo  Mo13  1  0.54229138  0.41031275  0.55525165  1
  Mo  Mo14  1  0.46447422  0.58633833  0.43617935  1
  Mo  Mo15  1  0.48455306  0.55763857  0.68066980  1
  Te  Te16  1  0.13201126  0.38164393  0.42679203  1
  Te  Te17  1  0.14383618  0.34621072  0.67511904  1
  Te  Te18  1  0.86624900  0.61870000  0.31855000  1
  Te  Te19  1  0.87939263  0.61405665  0.56469608  1
  Te  Te20  1  0.73106900  0.11857500  0.34560400  1
  Te  Te21  1  0.73195849  0.09704020  0.57991704  1
  Te  Te22  1  0.26785696  0.88139492  0.40086006  1
  Te  Te23  1  0.28936444  0.86200668  0.65156502  1
  Te  Te24  1  0.38690600  0.74931100  0.27459600  1
  Te  Te25  1  0.37970591  0.74049607  0.52257438  1
  Te  Te26  1  0.61838778  0.25040939  0.46876876  1
  Te  Te27  1  0.64125804  0.23487998  0.71566670  1
  Te  Te28  1  0.18432800  0.21398100  0.29715900  1
  Te  Te29  1  0.19722332  0.21505734  0.54276596  1
  Te  Te30  1  0.80957376  0.77946829  0.44876561  1
  Te  Te31  1  0.83275890  0.75109341  0.69732702  1
  N  N32  1  0.45837641  0.61828243  0.75653398  1
  H  H33  1  0.58688179  0.65095839  0.77626823  1
  H  H34  1  0.37729924  0.72784179  0.76200140  1
  H  H35  1  0.39954035  0.50205577  0.77114705  1
