# generated using pymatgen
data_Ag27HCO
_symmetry_space_group_name_H-M   'P 1'
_cell_length_a   8.60517300
_cell_length_b   8.60496305
_cell_length_c   24.34014600
_cell_angle_alpha   89.99904118
_cell_angle_beta   89.99896131
_cell_angle_gamma   90.00613242
_symmetry_Int_Tables_number   1
_chemical_formula_structural   Ag27HCO
_chemical_formula_sum   'Ag27 H1 C1 O1'
_cell_volume   1802.31954385
_cell_formula_units_Z   1
loop_
 _symmetry_equiv_pos_site_id
 _symmetry_equiv_pos_as_xyz
  1  'x, y, z'
loop_
 _atom_site_type_symbol
 _atom_site_label
 _atom_site_symmetry_multiplicity
 _atom_site_fract_x
 _atom_site_fract_y
 _atom_site_fract_z
 _atom_site_occupancy
  Ag  Ag0  1  0.33333300  0.00000000  0.45833300  1
  Ag  Ag1  1  0.33333300  0.33333300  0.45833300  1
  Ag  Ag2  1  0.33333300  0.66666700  0.45833300  1
  Ag  Ag3  1  0.66666700  0.00000000  0.45833300  1
  Ag  Ag4  1  0.66666700  0.33333300  0.45833300  1
  Ag  Ag5  1  0.66666700  0.66666700  0.45833300  1
  Ag  Ag6  1  0.00000000  0.00000000  0.45833300  1
  Ag  Ag7  1  0.00000000  0.33333300  0.45833300  1
  Ag  Ag8  1  0.00000000  0.66666700  0.45833300  1
  Ag  Ag9  1  0.33357463  0.99846242  0.63050608  1
  Ag  Ag10  1  0.32839091  0.33207366  0.63298032  1
  Ag  Ag11  1  0.33209646  0.66648576  0.63029395  1
  Ag  Ag12  1  0.66770466  0.99942909  0.62980233  1
  Ag  Ag13  1  0.66868393  0.33316881  0.62879281  1
  Ag  Ag14  1  0.66743758  0.66847480  0.62928071  1
  Ag  Ag15  1  0.00029075  0.00018608  0.63004523  1
  Ag  Ag16  1  0.99641756  0.33334810  0.62982178  1
  Ag  Ag17  1  0.99941504  0.66712836  0.62993754  1
  Ag  Ag18  1  0.16739524  0.16778627  0.54451045  1
  Ag  Ag19  1  0.16674088  0.49853236  0.54429655  1
  Ag  Ag20  1  0.16674287  0.83318428  0.54448318  1
  Ag  Ag21  1  0.49835259  0.16709735  0.54446585  1
  Ag  Ag22  1  0.49863457  0.49953934  0.54425149  1
  Ag  Ag23  1  0.49932838  0.83314505  0.54441081  1
  Ag  Ag24  1  0.83265544  0.16601648  0.54413977  1
  Ag  Ag25  1  0.83253854  0.50061814  0.54410889  1
  Ag  Ag26  1  0.83405564  0.83385604  0.54385577  1
  C  C27  1  0.38176599  0.35156444  0.71870793  1
  H  H28  1  0.28389013  0.32754095  0.74824778  1
  O  O29  1  0.50874922  0.38285463  0.73906873  1
