# generated using pymatgen
data_Fe2Te8Mo6N
_symmetry_space_group_name_H-M   'P 1'
_cell_length_a   7.22312727
_cell_length_b   7.08682392
_cell_length_c   29.37250900
_cell_angle_alpha   91.57772794
_cell_angle_beta   98.12045943
_cell_angle_gamma   93.99332592
_symmetry_Int_Tables_number   1
_chemical_formula_structural   Fe2Te8Mo6N
_chemical_formula_sum   'Fe4 Te16 Mo12 N2'
_cell_volume   1483.79736813
_cell_formula_units_Z   2
loop_
 _symmetry_equiv_pos_site_id
 _symmetry_equiv_pos_as_xyz
  1  'x, y, z'
loop_
 _atom_site_type_symbol
 _atom_site_label
 _atom_site_symmetry_multiplicity
 _atom_site_fract_x
 _atom_site_fract_y
 _atom_site_fract_z
 _atom_site_occupancy
  Fe  Fe0  1  0.94067777  0.13857672  0.46626650  1
  Fe  Fe1  1  0.83013709  0.10142296  0.66824226  1
  Fe  Fe2  1  0.05693100  0.86054300  0.27656700  1
  Fe  Fe3  1  0.04789428  0.86195531  0.52203712  1
  Mo  Mo4  1  0.24882381  0.55206083  0.34840449  1
  Mo  Mo5  1  0.23661077  0.54108988  0.59443711  1
  Mo  Mo6  1  0.75159299  0.45093655  0.39636729  1
  Mo  Mo7  1  0.74235339  0.44080819  0.63961729  1
  Mo  Mo8  1  0.41504943  0.24910618  0.38178365  1
  Mo  Mo9  1  0.40981202  0.23369325  0.62661865  1
  Mo  Mo10  1  0.57852328  0.75268742  0.36244037  1
  Mo  Mo11  1  0.57383966  0.74788888  0.60783010  1
  Mo  Mo12  1  0.53260700  0.41261200  0.31013000  1
  Mo  Mo13  1  0.52441098  0.41154491  0.55371168  1
  Mo  Mo14  1  0.46386291  0.58903657  0.43573780  1
  Mo  Mo15  1  0.45660196  0.56778779  0.67532497  1
  Te  Te16  1  0.13121299  0.38346345  0.42592720  1
  Te  Te17  1  0.12055565  0.36033335  0.67398912  1
  Te  Te18  1  0.86624900  0.61870000  0.31855000  1
  Te  Te19  1  0.86005139  0.61781960  0.56413497  1
  Te  Te20  1  0.73106900  0.11857500  0.34560400  1
  Te  Te21  1  0.71684444  0.10525507  0.58186377  1
  Te  Te22  1  0.26680675  0.88231272  0.39987696  1
  Te  Te23  1  0.26169590  0.87053897  0.64800187  1
  Te  Te24  1  0.38690600  0.74931100  0.27459600  1
  Te  Te25  1  0.37453349  0.74407434  0.52025798  1
  Te  Te26  1  0.61053695  0.25204612  0.46888692  1
  Te  Te27  1  0.60216315  0.25628312  0.71609130  1
  Te  Te28  1  0.18432800  0.21398100  0.29715900  1
  Te  Te29  1  0.17856354  0.21248138  0.54098169  1
  Te  Te30  1  0.81136087  0.78437906  0.44848139  1
  Te  Te31  1  0.80018043  0.75993961  0.69809205  1
  N  N32  1  0.02980821  0.11148946  0.77579412  1
  N  N33  1  0.95307787  0.09658671  0.80580897  1
