# generated using pymatgen
data_Fe4Mo12H(Se8N)2
_symmetry_space_group_name_H-M   'P 1'
_cell_length_a   6.73059675
_cell_length_b   6.68252955
_cell_length_c   28.41042900
_cell_angle_alpha   94.71078376
_cell_angle_beta   91.18717718
_cell_angle_gamma   96.76332947
_symmetry_Int_Tables_number   1
_chemical_formula_structural   Fe4Mo12H(Se8N)2
_chemical_formula_sum   'Fe4 Mo12 H1 Se16 N2'
_cell_volume   1264.05235895
_cell_formula_units_Z   1
loop_
 _symmetry_equiv_pos_site_id
 _symmetry_equiv_pos_as_xyz
  1  'x, y, z'
loop_
 _atom_site_type_symbol
 _atom_site_label
 _atom_site_symmetry_multiplicity
 _atom_site_fract_x
 _atom_site_fract_y
 _atom_site_fract_z
 _atom_site_occupancy
  Fe  Fe0  1  0.91255077  0.14715636  0.48177328  1
  Fe  Fe1  1  0.86894816  0.15053316  0.69620489  1
  Fe  Fe2  1  0.08366100  0.85003700  0.25310200  1
  Fe  Fe3  1  0.07961006  0.85007101  0.48961752  1
  Mo  Mo4  1  0.23214891  0.53666041  0.34801182  1
  Mo  Mo5  1  0.22101604  0.53943649  0.58253078  1
  Mo  Mo6  1  0.76603342  0.45922953  0.38744188  1
  Mo  Mo7  1  0.75292379  0.45541802  0.62373876  1
  Mo  Mo8  1  0.40894211  0.22538539  0.37714821  1
  Mo  Mo9  1  0.39708225  0.22897337  0.61382499  1
  Mo  Mo10  1  0.58997631  0.77398051  0.35817138  1
  Mo  Mo11  1  0.58270084  0.76829210  0.59399880  1
  Mo  Mo12  1  0.54876300  0.41297700  0.30450800  1
  Mo  Mo13  1  0.54120723  0.40970124  0.53943727  1
  Mo  Mo14  1  0.44860549  0.58536659  0.43178857  1
  Mo  Mo15  1  0.43662200  0.59080049  0.66514961  1
  Se  Se16  1  0.11365459  0.35854246  0.42373477  1
  Se  Se17  1  0.10419222  0.37257037  0.65882795  1
  Se  Se18  1  0.88453700  0.63734700  0.31138600  1
  Se  Se19  1  0.87571951  0.63488029  0.54785076  1
  Se  Se20  1  0.73314814  0.13496425  0.33382649  1
  Se  Se21  1  0.72799635  0.13046670  0.57125556  1
  Se  Se22  1  0.25895746  0.86382623  0.40017654  1
  Se  Se23  1  0.25502636  0.86729651  0.63581670  1
  Se  Se24  1  0.39326800  0.73478000  0.28166600  1
  Se  Se25  1  0.38899443  0.73543482  0.51698970  1
  Se  Se26  1  0.60410221  0.26259712  0.45388519  1
  Se  Se27  1  0.56353244  0.28244323  0.69630871  1
  Se  Se28  1  0.21444700  0.18780600  0.29890600  1
  Se  Se29  1  0.20607902  0.18685701  0.53414732  1
  Se  Se30  1  0.78374311  0.81013351  0.43714772  1
  Se  Se31  1  0.77738042  0.79449794  0.67471009  1
  N  N32  1  0.92283835  0.14780950  0.75481523  1
  N  N33  1  0.89520886  0.14388762  0.79637907  1
  H  H34  1  0.01324914  0.12453611  0.81923599  1
