# generated using pymatgen
data_Ag27H3N
_symmetry_space_group_name_H-M   'P 1'
_cell_length_a   8.60517300
_cell_length_b   8.60496305
_cell_length_c   24.34014600
_cell_angle_alpha   89.99904118
_cell_angle_beta   89.99896131
_cell_angle_gamma   90.00613242
_symmetry_Int_Tables_number   1
_chemical_formula_structural   Ag27H3N
_chemical_formula_sum   'Ag27 H3 N1'
_cell_volume   1802.31954385
_cell_formula_units_Z   1
loop_
 _symmetry_equiv_pos_site_id
 _symmetry_equiv_pos_as_xyz
  1  'x, y, z'
loop_
 _atom_site_type_symbol
 _atom_site_label
 _atom_site_symmetry_multiplicity
 _atom_site_fract_x
 _atom_site_fract_y
 _atom_site_fract_z
 _atom_site_occupancy
  Ag  Ag0  1  0.33333300  0.00000000  0.45833300  1
  Ag  Ag1  1  0.33333300  0.33333300  0.45833300  1
  Ag  Ag2  1  0.33333300  0.66666700  0.45833300  1
  Ag  Ag3  1  0.66666700  0.00000000  0.45833300  1
  Ag  Ag4  1  0.66666700  0.33333300  0.45833300  1
  Ag  Ag5  1  0.66666700  0.66666700  0.45833300  1
  Ag  Ag6  1  0.00000000  0.00000000  0.45833300  1
  Ag  Ag7  1  0.00000000  0.33333300  0.45833300  1
  Ag  Ag8  1  0.00000000  0.66666700  0.45833300  1
  Ag  Ag9  1  0.33362577  0.99765322  0.62793415  1
  Ag  Ag10  1  0.33417927  0.33314498  0.63008957  1
  Ag  Ag11  1  0.33357063  0.66878335  0.62807302  1
  Ag  Ag12  1  0.66673504  0.00016412  0.62859297  1
  Ag  Ag13  1  0.66943211  0.33339457  0.62798808  1
  Ag  Ag14  1  0.66672739  0.66667852  0.62854815  1
  Ag  Ag15  1  0.00019926  0.00013962  0.62856027  1
  Ag  Ag16  1  0.99828916  0.33342446  0.62802779  1
  Ag  Ag17  1  0.00011561  0.66676411  0.62851050  1
  Ag  Ag18  1  0.16761700  0.16739960  0.54362561  1
  Ag  Ag19  1  0.16761849  0.49924289  0.54363713  1
  Ag  Ag20  1  0.16596193  0.83330919  0.54319167  1
  Ag  Ag21  1  0.49943721  0.16743894  0.54361951  1
  Ag  Ag22  1  0.49939334  0.49919594  0.54362868  1
  Ag  Ag23  1  0.50084381  0.83329705  0.54317379  1
  Ag  Ag24  1  0.83359542  0.16589750  0.54318715  1
  Ag  Ag25  1  0.83356991  0.50077943  0.54317717  1
  Ag  Ag26  1  0.83336179  0.83343106  0.54340063  1
  N  N27  1  0.32926203  0.33443590  0.72374692  1
  H  H28  1  0.43538448  0.36373299  0.74000273  1
  H  H29  1  0.24964899  0.41258429  0.73862916  1
  H  H30  1  0.30006745  0.22715373  0.73936011  1
