# generated using pymatgen
data_Ag27H3N
_symmetry_space_group_name_H-M   'P 1'
_cell_length_a   8.60496519
_cell_length_b   8.60496881
_cell_length_c   23.47925300
_cell_angle_alpha   90.00483404
_cell_angle_beta   93.49762144
_cell_angle_gamma   119.99565775
_symmetry_Int_Tables_number   1
_chemical_formula_structural   Ag27H3N
_chemical_formula_sum   'Ag27 H3 N1'
_cell_volume   1501.93330901
_cell_formula_units_Z   1
loop_
 _symmetry_equiv_pos_site_id
 _symmetry_equiv_pos_as_xyz
  1  'x, y, z'
loop_
 _atom_site_type_symbol
 _atom_site_label
 _atom_site_symmetry_multiplicity
 _atom_site_fract_x
 _atom_site_fract_y
 _atom_site_fract_z
 _atom_site_occupancy
  Ag  Ag0  1  0.20000000  0.26666700  0.40000000  1
  Ag  Ag1  1  0.20000000  0.60000000  0.40000000  1
  Ag  Ag2  1  0.20000000  0.93333300  0.40000000  1
  Ag  Ag3  1  0.53333300  0.26666700  0.40000000  1
  Ag  Ag4  1  0.53333300  0.60000000  0.40000000  1
  Ag  Ag5  1  0.53333300  0.93333300  0.40000000  1
  Ag  Ag6  1  0.86666700  0.26666700  0.40000000  1
  Ag  Ag7  1  0.86666700  0.60000000  0.40000000  1
  Ag  Ag8  1  0.86666700  0.93333300  0.40000000  1
  Ag  Ag9  1  0.33502196  0.16920176  0.50237359  1
  Ag  Ag10  1  0.33501511  0.50062184  0.50238288  1
  Ag  Ag11  1  0.33328293  0.83416324  0.50129788  1
  Ag  Ag12  1  0.66779442  0.16814902  0.50195905  1
  Ag  Ag13  1  0.66610575  0.50086685  0.50267329  1
  Ag  Ag14  1  0.66769887  0.83532578  0.50192502  1
  Ag  Ag15  1  0.00042524  0.16780094  0.50175624  1
  Ag  Ag16  1  0.00102406  0.50197352  0.50122356  1
  Ag  Ag17  1  0.00082073  0.83399137  0.50121735  1
  Ag  Ag18  1  0.13127683  0.06593838  0.60245201  1
  Ag  Ag19  1  0.13160284  0.40210831  0.60264218  1
  Ag  Ag20  1  0.13521657  0.73591331  0.60411137  1
  Ag  Ag21  1  0.46814639  0.06698946  0.60296665  1
  Ag  Ag22  1  0.46779828  0.40237908  0.60472353  1
  Ag  Ag23  1  0.46835721  0.73841544  0.60279385  1
  Ag  Ag24  1  0.80165779  0.06876620  0.60505137  1
  Ag  Ag25  1  0.80325485  0.40179025  0.60312605  1
  Ag  Ag26  1  0.80336100  0.73714602  0.60317645  1
  N  N27  1  0.47193066  0.40539064  0.70286556  1
  H  H28  1  0.59695525  0.44020120  0.72131053  1
  H  H29  1  0.43807962  0.49568358  0.71804218  1
  H  H30  1  0.38224905  0.28162801  0.71741224  1
