# generated using pymatgen
data_Ag27HCO2
_symmetry_space_group_name_H-M   'P 1'
_cell_length_a   8.60496519
_cell_length_b   8.60496881
_cell_length_c   23.47925300
_cell_angle_alpha   90.00483404
_cell_angle_beta   93.49762144
_cell_angle_gamma   119.99565775
_symmetry_Int_Tables_number   1
_chemical_formula_structural   Ag27HCO2
_chemical_formula_sum   'Ag27 H1 C1 O2'
_cell_volume   1501.93330901
_cell_formula_units_Z   1
loop_
 _symmetry_equiv_pos_site_id
 _symmetry_equiv_pos_as_xyz
  1  'x, y, z'
loop_
 _atom_site_type_symbol
 _atom_site_label
 _atom_site_symmetry_multiplicity
 _atom_site_fract_x
 _atom_site_fract_y
 _atom_site_fract_z
 _atom_site_occupancy
  Ag  Ag0  1  0.20000000  0.26666700  0.40000000  1
  Ag  Ag1  1  0.20000000  0.60000000  0.40000000  1
  Ag  Ag2  1  0.20000000  0.93333300  0.40000000  1
  Ag  Ag3  1  0.53333300  0.26666700  0.40000000  1
  Ag  Ag4  1  0.53333300  0.60000000  0.40000000  1
  Ag  Ag5  1  0.53333300  0.93333300  0.40000000  1
  Ag  Ag6  1  0.86666700  0.26666700  0.40000000  1
  Ag  Ag7  1  0.86666700  0.60000000  0.40000000  1
  Ag  Ag8  1  0.86666700  0.93333300  0.40000000  1
  Ag  Ag9  1  0.33348906  0.16442928  0.50135032  1
  Ag  Ag10  1  0.33422158  0.49656403  0.50153574  1
  Ag  Ag11  1  0.33285351  0.83039125  0.50187666  1
  Ag  Ag12  1  0.66624449  0.16377262  0.50193704  1
  Ag  Ag13  1  0.66547656  0.49604746  0.50166848  1
  Ag  Ag14  1  0.66641930  0.82995163  0.50191242  1
  Ag  Ag15  1  0.00042306  0.16375745  0.50183088  1
  Ag  Ag16  1  0.00050892  0.49737527  0.50173915  1
  Ag  Ag17  1  0.00031288  0.83022724  0.50176732  1
  Ag  Ag18  1  0.13198126  0.06031313  0.60346414  1
  Ag  Ag19  1  0.13200606  0.39482012  0.60311684  1
  Ag  Ag20  1  0.13352970  0.72801367  0.60351077  1
  Ag  Ag21  1  0.46749238  0.06046157  0.60359498  1
  Ag  Ag22  1  0.46667969  0.39476608  0.60261385  1
  Ag  Ag23  1  0.46691491  0.73108319  0.60302611  1
  Ag  Ag24  1  0.80063096  0.06202549  0.60375064  1
  Ag  Ag25  1  0.80103569  0.39482350  0.60340601  1
  Ag  Ag26  1  0.80300069  0.73078182  0.60289875  1
  C  C27  1  0.47639990  0.40877519  0.69450372  1
  O  O28  1  0.54544142  0.54857405  0.72293363  1
  O  O29  1  0.39721556  0.24474663  0.71760947  1
  H  H30  1  0.40500197  0.25897790  0.76010118  1
