# generated using pymatgen
data_Fe2Mo6Se8N
_symmetry_space_group_name_H-M   'P 1'
_cell_length_a   6.73059675
_cell_length_b   6.68252955
_cell_length_c   28.41042900
_cell_angle_alpha   94.71078376
_cell_angle_beta   91.18717718
_cell_angle_gamma   96.76332947
_symmetry_Int_Tables_number   1
_chemical_formula_structural   Fe2Mo6Se8N
_chemical_formula_sum   'Fe4 Mo12 Se16 N2'
_cell_volume   1264.05235895
_cell_formula_units_Z   2
loop_
 _symmetry_equiv_pos_site_id
 _symmetry_equiv_pos_as_xyz
  1  'x, y, z'
loop_
 _atom_site_type_symbol
 _atom_site_label
 _atom_site_symmetry_multiplicity
 _atom_site_fract_x
 _atom_site_fract_y
 _atom_site_fract_z
 _atom_site_occupancy
  Fe  Fe0  1  0.92104391  0.15083041  0.47806043  1
  Fe  Fe1  1  0.81226319  0.10178469  0.64894471  1
  Fe  Fe2  1  0.08366100  0.85003700  0.25310200  1
  Fe  Fe3  1  0.09166833  0.85581188  0.48363671  1
  Mo  Mo4  1  0.23073311  0.53711956  0.34738985  1
  Mo  Mo5  1  0.22113003  0.53624637  0.58396199  1
  Mo  Mo6  1  0.76794214  0.46001766  0.38740863  1
  Mo  Mo7  1  0.75360402  0.45664674  0.62266760  1
  Mo  Mo8  1  0.41021564  0.22775384  0.37700762  1
  Mo  Mo9  1  0.39675047  0.22246867  0.61381856  1
  Mo  Mo10  1  0.59094045  0.77338720  0.35795662  1
  Mo  Mo11  1  0.58001433  0.76980907  0.59418642  1
  Mo  Mo12  1  0.54876300  0.41297700  0.30450800  1
  Mo  Mo13  1  0.53927207  0.41320950  0.53950967  1
  Mo  Mo14  1  0.44902547  0.58710490  0.43153625  1
  Mo  Mo15  1  0.43579670  0.58032458  0.66476853  1
  Se  Se16  1  0.11549194  0.36212353  0.42294939  1
  Se  Se17  1  0.10050088  0.35882597  0.65959199  1
  Se  Se18  1  0.88453700  0.63734700  0.31138600  1
  Se  Se19  1  0.87521537  0.63877289  0.54826854  1
  Se  Se20  1  0.73362307  0.13524929  0.33399857  1
  Se  Se21  1  0.72214431  0.12355255  0.56634287  1
  Se  Se22  1  0.25968526  0.86592605  0.39901536  1
  Se  Se23  1  0.25575869  0.86253856  0.63736486  1
  Se  Se24  1  0.39326800  0.73478000  0.28166600  1
  Se  Se25  1  0.38348007  0.73136557  0.51750134  1
  Se  Se26  1  0.60432188  0.26394886  0.45402705  1
  Se  Se27  1  0.58170864  0.27887151  0.69557867  1
  Se  Se28  1  0.21444700  0.18780600  0.29890600  1
  Se  Se29  1  0.20444442  0.18925967  0.53432277  1
  Se  Se30  1  0.78297111  0.81009171  0.43697234  1
  Se  Se31  1  0.77915942  0.77874717  0.67833570  1
  N  N32  1  0.97189080  0.13753263  0.76349414  1
  N  N33  1  0.85962385  0.11537080  0.79110714  1
