# generated using pymatgen
data_Ag27HN2
_symmetry_space_group_name_H-M   'P 1'
_cell_length_a   8.60517300
_cell_length_b   8.60496305
_cell_length_c   24.34014600
_cell_angle_alpha   89.99904118
_cell_angle_beta   89.99896131
_cell_angle_gamma   90.00613242
_symmetry_Int_Tables_number   1
_chemical_formula_structural   Ag27HN2
_chemical_formula_sum   'Ag27 H1 N2'
_cell_volume   1802.31954385
_cell_formula_units_Z   1
loop_
 _symmetry_equiv_pos_site_id
 _symmetry_equiv_pos_as_xyz
  1  'x, y, z'
loop_
 _atom_site_type_symbol
 _atom_site_label
 _atom_site_symmetry_multiplicity
 _atom_site_fract_x
 _atom_site_fract_y
 _atom_site_fract_z
 _atom_site_occupancy
  Ag  Ag0  1  0.33333300  0.00000000  0.45833300  1
  Ag  Ag1  1  0.33333300  0.33333300  0.45833300  1
  Ag  Ag2  1  0.33333300  0.66666700  0.45833300  1
  Ag  Ag3  1  0.66666700  0.00000000  0.45833300  1
  Ag  Ag4  1  0.66666700  0.33333300  0.45833300  1
  Ag  Ag5  1  0.66666700  0.66666700  0.45833300  1
  Ag  Ag6  1  0.00000000  0.00000000  0.45833300  1
  Ag  Ag7  1  0.00000000  0.33333300  0.45833300  1
  Ag  Ag8  1  0.00000000  0.66666700  0.45833300  1
  Ag  Ag9  1  0.33309556  0.99783658  0.62802384  1
  Ag  Ag10  1  0.32930965  0.33339746  0.62805798  1
  Ag  Ag11  1  0.33309739  0.66896907  0.62800391  1
  Ag  Ag12  1  0.66667593  0.99991929  0.62830823  1
  Ag  Ag13  1  0.66818397  0.33335661  0.62854089  1
  Ag  Ag14  1  0.66668566  0.66670378  0.62828801  1
  Ag  Ag15  1  0.00006621  0.99995663  0.62834270  1
  Ag  Ag16  1  0.99748823  0.33335385  0.62852242  1
  Ag  Ag17  1  0.00007083  0.66665166  0.62832572  1
  Ag  Ag18  1  0.16679385  0.16692429  0.54331737  1
  Ag  Ag19  1  0.16679867  0.49973938  0.54330646  1
  Ag  Ag20  1  0.16593469  0.83337304  0.54307835  1
  Ag  Ag21  1  0.49949479  0.16725359  0.54352487  1
  Ag  Ag22  1  0.49949093  0.49942382  0.54351493  1
  Ag  Ag23  1  0.50059612  0.83337539  0.54312787  1
  Ag  Ag24  1  0.83318350  0.16640430  0.54330123  1
  Ag  Ag25  1  0.83318305  0.50021194  0.54328670  1
  Ag  Ag26  1  0.83337323  0.83335223  0.54331950  1
  N  N27  1  0.35277456  0.33346516  0.71848156  1
  N  N28  1  0.32153019  0.33290467  0.76567992  1
  H  H29  1  0.41318729  0.33331744  0.79477562  1
