# generated using pymatgen
data_Ag27H3N
_symmetry_space_group_name_H-M   'P 1'
_cell_length_a   8.60496519
_cell_length_b   8.60496881
_cell_length_c   23.47925300
_cell_angle_alpha   90.00483404
_cell_angle_beta   93.49762144
_cell_angle_gamma   119.99565775
_symmetry_Int_Tables_number   1
_chemical_formula_structural   Ag27H3N
_chemical_formula_sum   'Ag27 H3 N1'
_cell_volume   1501.93330901
_cell_formula_units_Z   1
loop_
 _symmetry_equiv_pos_site_id
 _symmetry_equiv_pos_as_xyz
  1  'x, y, z'
loop_
 _atom_site_type_symbol
 _atom_site_label
 _atom_site_symmetry_multiplicity
 _atom_site_fract_x
 _atom_site_fract_y
 _atom_site_fract_z
 _atom_site_occupancy
  Ag  Ag0  1  0.20000000  0.26666700  0.40000000  1
  Ag  Ag1  1  0.20000000  0.60000000  0.40000000  1
  Ag  Ag2  1  0.20000000  0.93333300  0.40000000  1
  Ag  Ag3  1  0.53333300  0.26666700  0.40000000  1
  Ag  Ag4  1  0.53333300  0.60000000  0.40000000  1
  Ag  Ag5  1  0.53333300  0.93333300  0.40000000  1
  Ag  Ag6  1  0.86666700  0.26666700  0.40000000  1
  Ag  Ag7  1  0.86666700  0.60000000  0.40000000  1
  Ag  Ag8  1  0.86666700  0.93333300  0.40000000  1
  Ag  Ag9  1  0.33429894  0.16855553  0.50216637  1
  Ag  Ag10  1  0.33423540  0.49903878  0.50213242  1
  Ag  Ag11  1  0.33248169  0.83296135  0.50082332  1
  Ag  Ag12  1  0.66654400  0.16652448  0.50131278  1
  Ag  Ag13  1  0.66447790  0.49891300  0.50239848  1
  Ag  Ag14  1  0.66665524  0.83333639  0.50128923  1
  Ag  Ag15  1  0.99966164  0.16652439  0.50119386  1
  Ag  Ag16  1  0.99995251  0.50048579  0.50079762  1
  Ag  Ag17  1  0.99987663  0.83267424  0.50078061  1
  Ag  Ag18  1  0.13032787  0.06411068  0.60164733  1
  Ag  Ag19  1  0.13041800  0.39956125  0.60179498  1
  Ag  Ag20  1  0.13320578  0.73325898  0.60272649  1
  Ag  Ag21  1  0.46661773  0.06473163  0.60204378  1
  Ag  Ag22  1  0.46647460  0.39992101  0.60544900  1
  Ag  Ag23  1  0.46660963  0.73537846  0.60182103  1
  Ag  Ag24  1  0.80000650  0.06665279  0.60337169  1
  Ag  Ag25  1  0.80120066  0.39960082  0.60208696  1
  Ag  Ag26  1  0.80122520  0.73490802  0.60219279  1
  N  N27  1  0.47339224  0.40525408  0.70364624  1
  H  H28  1  0.59905224  0.44117705  0.72185758  1
  H  H29  1  0.43964468  0.49526898  0.71925052  1
  H  H30  1  0.38527258  0.28204799  0.71896806  1
