# generated using pymatgen
data_Ag27N2
_symmetry_space_group_name_H-M   'P 1'
_cell_length_a   8.60517300
_cell_length_b   8.60496305
_cell_length_c   24.34014600
_cell_angle_alpha   89.99904118
_cell_angle_beta   89.99896131
_cell_angle_gamma   90.00613242
_symmetry_Int_Tables_number   1
_chemical_formula_structural   Ag27N2
_chemical_formula_sum   'Ag27 N2'
_cell_volume   1802.31954385
_cell_formula_units_Z   1
loop_
 _symmetry_equiv_pos_site_id
 _symmetry_equiv_pos_as_xyz
  1  'x, y, z'
loop_
 _atom_site_type_symbol
 _atom_site_label
 _atom_site_symmetry_multiplicity
 _atom_site_fract_x
 _atom_site_fract_y
 _atom_site_fract_z
 _atom_site_occupancy
  Ag  Ag0  1  0.33333300  0.00000000  0.45833300  1
  Ag  Ag1  1  0.33333300  0.33333300  0.45833300  1
  Ag  Ag2  1  0.33333300  0.66666700  0.45833300  1
  Ag  Ag3  1  0.66666700  0.00000000  0.45833300  1
  Ag  Ag4  1  0.66666700  0.33333300  0.45833300  1
  Ag  Ag5  1  0.66666700  0.66666700  0.45833300  1
  Ag  Ag6  1  0.00000000  0.00000000  0.45833300  1
  Ag  Ag7  1  0.00000000  0.33333300  0.45833300  1
  Ag  Ag8  1  0.00000000  0.66666700  0.45833300  1
  Ag  Ag9  1  0.33338285  0.99848510  0.62814855  1
  Ag  Ag10  1  0.33340199  0.33340264  0.62700070  1
  Ag  Ag11  1  0.33346615  0.66829247  0.62812668  1
  Ag  Ag12  1  0.66651696  0.00022562  0.62882729  1
  Ag  Ag13  1  0.66829261  0.33346734  0.62812701  1
  Ag  Ag14  1  0.66659985  0.66660077  0.62880919  1
  Ag  Ag15  1  0.00014526  0.00014565  0.62883422  1
  Ag  Ag16  1  0.99848486  0.33338352  0.62814887  1
  Ag  Ag17  1  0.00022494  0.66651741  0.62882698  1
  Ag  Ag18  1  0.16646135  0.16646126  0.54331710  1
  Ag  Ag19  1  0.16649606  0.50019703  0.54330705  1
  Ag  Ag20  1  0.16597962  0.83336918  0.54327103  1
  Ag  Ag21  1  0.50019771  0.16649622  0.54330724  1
  Ag  Ag22  1  0.50022762  0.50022715  0.54329664  1
  Ag  Ag23  1  0.50073212  0.83340823  0.54325752  1
  Ag  Ag24  1  0.83336928  0.16598007  0.54327130  1
  Ag  Ag25  1  0.83340794  0.50073191  0.54325737  1
  Ag  Ag26  1  0.83339768  0.83339823  0.54365470  1
  N  N27  1  0.33338456  0.33338478  0.72688741  1
  N  N28  1  0.33288759  0.33288775  0.77237065  1
