# generated using pymatgen
data_Ag27O
_symmetry_space_group_name_H-M   'P 1'
_cell_length_a   8.60517300
_cell_length_b   8.60496305
_cell_length_c   24.34014600
_cell_angle_alpha   89.99904118
_cell_angle_beta   89.99896131
_cell_angle_gamma   90.00613242
_symmetry_Int_Tables_number   1
_chemical_formula_structural   Ag27O
_chemical_formula_sum   'Ag27 O1'
_cell_volume   1802.31954385
_cell_formula_units_Z   1
loop_
 _symmetry_equiv_pos_site_id
 _symmetry_equiv_pos_as_xyz
  1  'x, y, z'
loop_
 _atom_site_type_symbol
 _atom_site_label
 _atom_site_symmetry_multiplicity
 _atom_site_fract_x
 _atom_site_fract_y
 _atom_site_fract_z
 _atom_site_occupancy
  Ag  Ag0  1  0.33333300  0.00000000  0.45833300  1
  Ag  Ag1  1  0.33333300  0.33333300  0.45833300  1
  Ag  Ag2  1  0.33333300  0.66666700  0.45833300  1
  Ag  Ag3  1  0.66666700  0.00000000  0.45833300  1
  Ag  Ag4  1  0.66666700  0.33333300  0.45833300  1
  Ag  Ag5  1  0.66666700  0.66666700  0.45833300  1
  Ag  Ag6  1  0.00000000  0.00000000  0.45833300  1
  Ag  Ag7  1  0.00000000  0.33333300  0.45833300  1
  Ag  Ag8  1  0.00000000  0.66666700  0.45833300  1
  Ag  Ag9  1  0.33337500  0.00328372  0.63014282  1
  Ag  Ag10  1  0.33327498  0.33327511  0.62257485  1
  Ag  Ag11  1  0.33337647  0.66323571  0.63015067  1
  Ag  Ag12  1  0.66676385  0.99990984  0.62712140  1
  Ag  Ag13  1  0.66323497  0.33337711  0.63014997  1
  Ag  Ag14  1  0.66676794  0.66676854  0.62710418  1
  Ag  Ag15  1  0.99990662  0.99990725  0.62714321  1
  Ag  Ag16  1  0.00328389  0.33337558  0.63014219  1
  Ag  Ag17  1  0.99990915  0.66676434  0.62712129  1
  Ag  Ag18  1  0.16599677  0.16599731  0.54184879  1
  Ag  Ag19  1  0.16600095  0.50062324  0.54184563  1
  Ag  Ag20  1  0.16878424  0.83334472  0.54396707  1
  Ag  Ag21  1  0.50062319  0.16600144  0.54184564  1
  Ag  Ag22  1  0.50061833  0.50061838  0.54184050  1
  Ag  Ag23  1  0.49795179  0.83334514  0.54395243  1
  Ag  Ag24  1  0.83334443  0.16878358  0.54396695  1
  Ag  Ag25  1  0.83334487  0.49795298  0.54395224  1
  Ag  Ag26  1  0.83339705  0.83339740  0.54245202  1
  O  O27  1  0.33359036  0.33359264  0.70278271  1
