# generated using pymatgen
data_Ag27HCO
_symmetry_space_group_name_H-M   'P 1'
_cell_length_a   8.60496519
_cell_length_b   8.60496881
_cell_length_c   23.47925300
_cell_angle_alpha   90.00483404
_cell_angle_beta   93.49762144
_cell_angle_gamma   119.99565775
_symmetry_Int_Tables_number   1
_chemical_formula_structural   Ag27HCO
_chemical_formula_sum   'Ag27 H1 C1 O1'
_cell_volume   1501.93330901
_cell_formula_units_Z   1
loop_
 _symmetry_equiv_pos_site_id
 _symmetry_equiv_pos_as_xyz
  1  'x, y, z'
loop_
 _atom_site_type_symbol
 _atom_site_label
 _atom_site_symmetry_multiplicity
 _atom_site_fract_x
 _atom_site_fract_y
 _atom_site_fract_z
 _atom_site_occupancy
  Ag  Ag0  1  0.20000000  0.26666700  0.40000000  1
  Ag  Ag1  1  0.20000000  0.60000000  0.40000000  1
  Ag  Ag2  1  0.20000000  0.93333300  0.40000000  1
  Ag  Ag3  1  0.53333300  0.26666700  0.40000000  1
  Ag  Ag4  1  0.53333300  0.60000000  0.40000000  1
  Ag  Ag5  1  0.53333300  0.93333300  0.40000000  1
  Ag  Ag6  1  0.86666700  0.26666700  0.40000000  1
  Ag  Ag7  1  0.86666700  0.60000000  0.40000000  1
  Ag  Ag8  1  0.86666700  0.93333300  0.40000000  1
  Ag  Ag9  1  0.34096148  0.16986581  0.50204716  1
  Ag  Ag10  1  0.34026098  0.50184636  0.50266093  1
  Ag  Ag11  1  0.34069017  0.83608550  0.50248941  1
  Ag  Ag12  1  0.67555833  0.17170061  0.50260457  1
  Ag  Ag13  1  0.67417273  0.50342839  0.50165192  1
  Ag  Ag14  1  0.67472893  0.83596012  0.50254732  1
  Ag  Ag15  1  0.00941597  0.17102060  0.50298939  1
  Ag  Ag16  1  0.01167631  0.50181938  0.50387075  1
  Ag  Ag17  1  0.01092134  0.84118473  0.50356153  1
  Ag  Ag18  1  0.14688496  0.07001651  0.60942131  1
  Ag  Ag19  1  0.14242519  0.41015832  0.61053214  1
  Ag  Ag20  1  0.14759365  0.74073530  0.60480872  1
  Ag  Ag21  1  0.48051223  0.07031456  0.60361647  1
  Ag  Ag22  1  0.49805421  0.41196942  0.60289035  1
  Ag  Ag23  1  0.47993814  0.73923617  0.60424762  1
  Ag  Ag24  1  0.81066187  0.07069259  0.60362001  1
  Ag  Ag25  1  0.81694549  0.40678542  0.60390594  1
  Ag  Ag26  1  0.81706451  0.74281830  0.60407206  1
  C  C27  1  0.29801183  0.32384537  0.66213840  1
  H  H28  1  0.24907206  0.33374513  0.74189827  1
  O  O29  1  0.33972563  0.33224451  0.71796377  1
