# generated using pymatgen
data_Ag27CO
_symmetry_space_group_name_H-M   'P 1'
_cell_length_a   8.60496519
_cell_length_b   8.60496881
_cell_length_c   23.47925300
_cell_angle_alpha   90.00483404
_cell_angle_beta   93.49762144
_cell_angle_gamma   119.99565775
_symmetry_Int_Tables_number   1
_chemical_formula_structural   Ag27CO
_chemical_formula_sum   'Ag27 C1 O1'
_cell_volume   1501.93330901
_cell_formula_units_Z   1
loop_
 _symmetry_equiv_pos_site_id
 _symmetry_equiv_pos_as_xyz
  1  'x, y, z'
loop_
 _atom_site_type_symbol
 _atom_site_label
 _atom_site_symmetry_multiplicity
 _atom_site_fract_x
 _atom_site_fract_y
 _atom_site_fract_z
 _atom_site_occupancy
  Ag  Ag0  1  0.20000000  0.26666700  0.40000000  1
  Ag  Ag1  1  0.20000000  0.60000000  0.40000000  1
  Ag  Ag2  1  0.20000000  0.93333300  0.40000000  1
  Ag  Ag3  1  0.53333300  0.26666700  0.40000000  1
  Ag  Ag4  1  0.53333300  0.60000000  0.40000000  1
  Ag  Ag5  1  0.53333300  0.93333300  0.40000000  1
  Ag  Ag6  1  0.86666700  0.26666700  0.40000000  1
  Ag  Ag7  1  0.86666700  0.60000000  0.40000000  1
  Ag  Ag8  1  0.86666700  0.93333300  0.40000000  1
  Ag  Ag9  1  0.33419269  0.16806311  0.50163508  1
  Ag  Ag10  1  0.33422544  0.49948983  0.50166693  1
  Ag  Ag11  1  0.33296632  0.83316118  0.50079815  1
  Ag  Ag12  1  0.66705092  0.16671452  0.50140002  1
  Ag  Ag13  1  0.66541383  0.49939848  0.50186656  1
  Ag  Ag14  1  0.66704866  0.83371338  0.50140880  1
  Ag  Ag15  1  0.99995697  0.16667404  0.50132180  1
  Ag  Ag16  1  0.00025793  0.50061744  0.50077605  1
  Ag  Ag17  1  0.00023470  0.83301862  0.50077529  1
  Ag  Ag18  1  0.13083293  0.06418645  0.60197870  1
  Ag  Ag19  1  0.13089518  0.40010618  0.60200561  1
  Ag  Ag20  1  0.13383544  0.73364504  0.60286490  1
  Ag  Ag21  1  0.46717908  0.06460213  0.60211407  1
  Ag  Ag22  1  0.46725989  0.40036466  0.60283738  1
  Ag  Ag23  1  0.46717182  0.73593308  0.60215588  1
  Ag  Ag24  1  0.80067106  0.06704467  0.60354700  1
  Ag  Ag25  1  0.80234970  0.40012228  0.60228346  1
  Ag  Ag26  1  0.80231123  0.73563353  0.60230303  1
  O  O27  1  0.45884336  0.39205586  0.74152491  1
  C  C28  1  0.46758572  0.39848289  0.69302718  1
