# generated using pymatgen
data_Ag27CO2
_symmetry_space_group_name_H-M   'P 1'
_cell_length_a   8.60517300
_cell_length_b   8.60496305
_cell_length_c   24.34014600
_cell_angle_alpha   89.99904118
_cell_angle_beta   89.99896131
_cell_angle_gamma   90.00613242
_symmetry_Int_Tables_number   1
_chemical_formula_structural   Ag27CO2
_chemical_formula_sum   'Ag27 C1 O2'
_cell_volume   1802.31954385
_cell_formula_units_Z   1
loop_
 _symmetry_equiv_pos_site_id
 _symmetry_equiv_pos_as_xyz
  1  'x, y, z'
loop_
 _atom_site_type_symbol
 _atom_site_label
 _atom_site_symmetry_multiplicity
 _atom_site_fract_x
 _atom_site_fract_y
 _atom_site_fract_z
 _atom_site_occupancy
  Ag  Ag0  1  0.33333300  0.00000000  0.45833300  1
  Ag  Ag1  1  0.33333300  0.33333300  0.45833300  1
  Ag  Ag2  1  0.33333300  0.66666700  0.45833300  1
  Ag  Ag3  1  0.66666700  0.00000000  0.45833300  1
  Ag  Ag4  1  0.66666700  0.33333300  0.45833300  1
  Ag  Ag5  1  0.66666700  0.66666700  0.45833300  1
  Ag  Ag6  1  0.00000000  0.00000000  0.45833300  1
  Ag  Ag7  1  0.00000000  0.33333300  0.45833300  1
  Ag  Ag8  1  0.00000000  0.66666700  0.45833300  1
  Ag  Ag9  1  0.33280184  0.00199771  0.62773507  1
  Ag  Ag10  1  0.33136047  0.33553843  0.62214087  1
  Ag  Ag11  1  0.33334835  0.66903848  0.62773863  1
  Ag  Ag12  1  0.66583104  0.00267425  0.62805292  1
  Ag  Ag13  1  0.66399842  0.33601396  0.62745134  1
  Ag  Ag14  1  0.66638317  0.66933610  0.62804159  1
  Ag  Ag15  1  0.99962562  0.00340658  0.62806175  1
  Ag  Ag16  1  0.99818117  0.33672025  0.62742800  1
  Ag  Ag17  1  0.00016822  0.67006596  0.62805875  1
  Ag  Ag18  1  0.16424309  0.16671868  0.54209429  1
  Ag  Ag19  1  0.16434055  0.50320092  0.54209119  1
  Ag  Ag20  1  0.16647389  0.83501741  0.54313264  1
  Ag  Ag21  1  0.50049215  0.16655255  0.54212991  1
  Ag  Ag22  1  0.50068819  0.50286077  0.54210933  1
  Ag  Ag23  1  0.50002549  0.83477741  0.54311819  1
  Ag  Ag24  1  0.83239318  0.16827883  0.54302936  1
  Ag  Ag25  1  0.83255682  0.50212797  0.54302516  1
  Ag  Ag26  1  0.83327373  0.83524242  0.54316215  1
  C  C27  1  0.32700771  0.33233444  0.74379066  1
  O  O28  1  0.32704724  0.46867102  0.74316342  1
  O  O29  1  0.32698307  0.19605837  0.74315787  1
