# generated using pymatgen
data_Fe2Te8Mo6N
_symmetry_space_group_name_H-M   'P 1'
_cell_length_a   7.22312727
_cell_length_b   7.08682392
_cell_length_c   29.37250900
_cell_angle_alpha   91.57772794
_cell_angle_beta   98.12045943
_cell_angle_gamma   93.99332592
_symmetry_Int_Tables_number   1
_chemical_formula_structural   Fe2Te8Mo6N
_chemical_formula_sum   'Fe4 Te16 Mo12 N2'
_cell_volume   1483.79736813
_cell_formula_units_Z   2
loop_
 _symmetry_equiv_pos_site_id
 _symmetry_equiv_pos_as_xyz
  1  'x, y, z'
loop_
 _atom_site_type_symbol
 _atom_site_label
 _atom_site_symmetry_multiplicity
 _atom_site_fract_x
 _atom_site_fract_y
 _atom_site_fract_z
 _atom_site_occupancy
  Fe  Fe0  1  0.94025130  0.13857124  0.46593566  1
  Fe  Fe1  1  0.82803754  0.09922061  0.66736645  1
  Fe  Fe2  1  0.05693100  0.86054300  0.27656700  1
  Fe  Fe3  1  0.04495622  0.86731864  0.52211089  1
  Mo  Mo4  1  0.24858967  0.55260516  0.34834267  1
  Mo  Mo5  1  0.23567544  0.54178984  0.59456146  1
  Mo  Mo6  1  0.75168863  0.45159597  0.39636650  1
  Mo  Mo7  1  0.74288593  0.44106873  0.63912260  1
  Mo  Mo8  1  0.41471890  0.24975633  0.38172172  1
  Mo  Mo9  1  0.41053683  0.23398123  0.62640202  1
  Mo  Mo10  1  0.57810499  0.75309300  0.36248622  1
  Mo  Mo11  1  0.57300969  0.74860574  0.60771098  1
  Mo  Mo12  1  0.53260700  0.41261200  0.31013000  1
  Mo  Mo13  1  0.52344953  0.41326347  0.55336061  1
  Mo  Mo14  1  0.46316298  0.58977621  0.43588504  1
  Mo  Mo15  1  0.45720471  0.56754742  0.67527896  1
  Te  Te16  1  0.13085565  0.38404947  0.42581206  1
  Te  Te17  1  0.12097009  0.35801560  0.67404370  1
  Te  Te18  1  0.86624900  0.61870000  0.31855000  1
  Te  Te19  1  0.85925624  0.61962163  0.56384186  1
  Te  Te20  1  0.73106900  0.11857500  0.34560400  1
  Te  Te21  1  0.71547734  0.10600188  0.58103187  1
  Te  Te22  1  0.26636368  0.88283064  0.39974292  1
  Te  Te23  1  0.26207709  0.87099197  0.64815545  1
  Te  Te24  1  0.38690600  0.74931100  0.27459600  1
  Te  Te25  1  0.37095508  0.74561528  0.52025002  1
  Te  Te26  1  0.61041201  0.25265964  0.46869478  1
  Te  Te27  1  0.60644874  0.25700100  0.71593023  1
  Te  Te28  1  0.18432800  0.21398100  0.29715900  1
  Te  Te29  1  0.17722556  0.21598627  0.54069290  1
  Te  Te30  1  0.81083461  0.78406227  0.44862587  1
  Te  Te31  1  0.80106554  0.75981830  0.69781755  1
  N  N32  1  0.04472878  0.10846536  0.78150623  1
  N  N33  1  0.96079069  0.09847972  0.81022754  1
