# generated using pymatgen
data_Fe4Te16Mo12H
_symmetry_space_group_name_H-M   'P 1'
_cell_length_a   7.22312727
_cell_length_b   7.08682392
_cell_length_c   29.37250900
_cell_angle_alpha   91.57772794
_cell_angle_beta   98.12045943
_cell_angle_gamma   93.99332592
_symmetry_Int_Tables_number   1
_chemical_formula_structural   Fe4Te16Mo12H
_chemical_formula_sum   'Fe4 Te16 Mo12 H1'
_cell_volume   1483.79736813
_cell_formula_units_Z   1
loop_
 _symmetry_equiv_pos_site_id
 _symmetry_equiv_pos_as_xyz
  1  'x, y, z'
loop_
 _atom_site_type_symbol
 _atom_site_label
 _atom_site_symmetry_multiplicity
 _atom_site_fract_x
 _atom_site_fract_y
 _atom_site_fract_z
 _atom_site_occupancy
  Fe  Fe0  1  0.94692205  0.13850237  0.46942233  1
  Fe  Fe1  1  0.84514125  0.09201074  0.68350616  1
  Fe  Fe2  1  0.05693100  0.86054300  0.27656700  1
  Fe  Fe3  1  0.05384478  0.86102491  0.52238121  1
  Mo  Mo4  1  0.24931135  0.55186022  0.34889912  1
  Mo  Mo5  1  0.24373585  0.54386151  0.59607376  1
  Mo  Mo6  1  0.75282140  0.45165362  0.39649335  1
  Mo  Mo7  1  0.74703614  0.44516641  0.64105586  1
  Mo  Mo8  1  0.41662629  0.24946026  0.38216485  1
  Mo  Mo9  1  0.41651401  0.23877831  0.62926680  1
  Mo  Mo10  1  0.57891840  0.75247094  0.36263981  1
  Mo  Mo11  1  0.58116529  0.74656653  0.60970138  1
  Mo  Mo12  1  0.53260700  0.41261200  0.31013000  1
  Mo  Mo13  1  0.53245183  0.41061148  0.55584124  1
  Mo  Mo14  1  0.46628248  0.58884551  0.43603539  1
  Mo  Mo15  1  0.46643195  0.57282406  0.67779890  1
  Te  Te16  1  0.13270545  0.38211951  0.42671453  1
  Te  Te17  1  0.12934982  0.37221075  0.67597280  1
  Te  Te18  1  0.86624900  0.61870000  0.31855000  1
  Te  Te19  1  0.86752720  0.61867061  0.56521912  1
  Te  Te20  1  0.73106900  0.11857500  0.34560400  1
  Te  Te21  1  0.72983737  0.10700111  0.58706537  1
  Te  Te22  1  0.26842197  0.88210238  0.40043923  1
  Te  Te23  1  0.27104019  0.87379216  0.64984365  1
  Te  Te24  1  0.38690600  0.74931100  0.27459600  1
  Te  Te25  1  0.38213866  0.74322769  0.52163657  1
  Te  Te26  1  0.61398706  0.25221804  0.46975930  1
  Te  Te27  1  0.60175947  0.26037613  0.72001791  1
  Te  Te28  1  0.18432800  0.21398100  0.29715900  1
  Te  Te29  1  0.18713233  0.21259213  0.54335982  1
  Te  Te30  1  0.81445976  0.78519026  0.44883513  1
  Te  Te31  1  0.81475991  0.74855693  0.70405589  1
  H  H32  1  0.93902613  0.09645256  0.73392075  1
