# generated using pymatgen
data_Ag27HCO
_symmetry_space_group_name_H-M   'P 1'
_cell_length_a   8.60496519
_cell_length_b   8.60496881
_cell_length_c   23.47925300
_cell_angle_alpha   90.00483404
_cell_angle_beta   93.49762144
_cell_angle_gamma   119.99565775
_symmetry_Int_Tables_number   1
_chemical_formula_structural   Ag27HCO
_chemical_formula_sum   'Ag27 H1 C1 O1'
_cell_volume   1501.93330901
_cell_formula_units_Z   1
loop_
 _symmetry_equiv_pos_site_id
 _symmetry_equiv_pos_as_xyz
  1  'x, y, z'
loop_
 _atom_site_type_symbol
 _atom_site_label
 _atom_site_symmetry_multiplicity
 _atom_site_fract_x
 _atom_site_fract_y
 _atom_site_fract_z
 _atom_site_occupancy
  Ag  Ag0  1  0.20000000  0.26666700  0.40000000  1
  Ag  Ag1  1  0.20000000  0.60000000  0.40000000  1
  Ag  Ag2  1  0.20000000  0.93333300  0.40000000  1
  Ag  Ag3  1  0.53333300  0.26666700  0.40000000  1
  Ag  Ag4  1  0.53333300  0.60000000  0.40000000  1
  Ag  Ag5  1  0.53333300  0.93333300  0.40000000  1
  Ag  Ag6  1  0.86666700  0.26666700  0.40000000  1
  Ag  Ag7  1  0.86666700  0.60000000  0.40000000  1
  Ag  Ag8  1  0.86666700  0.93333300  0.40000000  1
  Ag  Ag9  1  0.34028186  0.17061584  0.50178972  1
  Ag  Ag10  1  0.34004058  0.50244504  0.50202431  1
  Ag  Ag11  1  0.34077909  0.83692510  0.50251513  1
  Ag  Ag12  1  0.67518556  0.17169349  0.50258860  1
  Ag  Ag13  1  0.67495272  0.50430788  0.50166873  1
  Ag  Ag14  1  0.67479562  0.83680228  0.50256701  1
  Ag  Ag15  1  0.00911087  0.17125664  0.50265555  1
  Ag  Ag16  1  0.01096340  0.50276405  0.50388295  1
  Ag  Ag17  1  0.01088057  0.84159678  0.50371437  1
  Ag  Ag18  1  0.14505534  0.06915509  0.60869291  1
  Ag  Ag19  1  0.14339332  0.41047279  0.60952752  1
  Ag  Ag20  1  0.14744032  0.74114123  0.60523275  1
  Ag  Ag21  1  0.48049909  0.07263511  0.60388687  1
  Ag  Ag22  1  0.49680602  0.41428575  0.60288048  1
  Ag  Ag23  1  0.48001122  0.74070271  0.60391370  1
  Ag  Ag24  1  0.81086002  0.07232837  0.60407185  1
  Ag  Ag25  1  0.81659985  0.40757822  0.60451338  1
  Ag  Ag26  1  0.81680414  0.74323389  0.60445627  1
  C  C27  1  0.29518120  0.31769958  0.66193757  1
  H  H28  1  0.23705991  0.31026930  0.74148494  1
  O  O29  1  0.33616375  0.33216139  0.71688440  1
