# generated using pymatgen
data_Fe2Te8Mo6N
_symmetry_space_group_name_H-M   'P 1'
_cell_length_a   7.22312727
_cell_length_b   7.08682392
_cell_length_c   29.37250900
_cell_angle_alpha   91.57772794
_cell_angle_beta   98.12045943
_cell_angle_gamma   93.99332592
_symmetry_Int_Tables_number   1
_chemical_formula_structural   Fe2Te8Mo6N
_chemical_formula_sum   'Fe4 Te16 Mo12 N2'
_cell_volume   1483.79736813
_cell_formula_units_Z   2
loop_
 _symmetry_equiv_pos_site_id
 _symmetry_equiv_pos_as_xyz
  1  'x, y, z'
loop_
 _atom_site_type_symbol
 _atom_site_label
 _atom_site_symmetry_multiplicity
 _atom_site_fract_x
 _atom_site_fract_y
 _atom_site_fract_z
 _atom_site_occupancy
  Fe  Fe0  1  0.95113274  0.12483025  0.46950484  1
  Fe  Fe1  1  0.85506486  0.09290794  0.66551265  1
  Fe  Fe2  1  0.05693100  0.86054300  0.27656700  1
  Fe  Fe3  1  0.04839561  0.87742472  0.52217350  1
  Mo  Mo4  1  0.24904546  0.55184663  0.34895534  1
  Mo  Mo5  1  0.25340855  0.54155129  0.59792126  1
  Mo  Mo6  1  0.75141835  0.45035997  0.39637084  1
  Mo  Mo7  1  0.76068547  0.43627654  0.64054360  1
  Mo  Mo8  1  0.41589861  0.24921787  0.38214157  1
  Mo  Mo9  1  0.42748513  0.23094960  0.62838709  1
  Mo  Mo10  1  0.57845506  0.75194165  0.36277925  1
  Mo  Mo11  1  0.58972327  0.74611963  0.61012401  1
  Mo  Mo12  1  0.53260700  0.41261200  0.31013000  1
  Mo  Mo13  1  0.53844480  0.41481643  0.55607413  1
  Mo  Mo14  1  0.46369791  0.58753256  0.43624527  1
  Mo  Mo15  1  0.47975128  0.56278810  0.68207684  1
  Te  Te16  1  0.13136437  0.38090852  0.42706917  1
  Te  Te17  1  0.13968170  0.35306760  0.67560118  1
  Te  Te18  1  0.86624900  0.61870000  0.31855000  1
  Te  Te19  1  0.87518954  0.61960564  0.56544841  1
  Te  Te20  1  0.73106900  0.11857500  0.34560400  1
  Te  Te21  1  0.72795177  0.10264506  0.58101030  1
  Te  Te22  1  0.26742912  0.88192585  0.40072858  1
  Te  Te23  1  0.28389939  0.86605944  0.65202689  1
  Te  Te24  1  0.38690600  0.74931100  0.27459600  1
  Te  Te25  1  0.37914400  0.74468612  0.52267581  1
  Te  Te26  1  0.61628002  0.25256525  0.46932004  1
  Te  Te27  1  0.63266214  0.23738245  0.71604970  1
  Te  Te28  1  0.18432800  0.21398100  0.29715900  1
  Te  Te29  1  0.19360504  0.21864399  0.54365873  1
  Te  Te30  1  0.80877578  0.78100245  0.44875118  1
  Te  Te31  1  0.82762942  0.75639643  0.69819482  1
  N  N32  1  0.47082409  0.61101349  0.75329290  1
  N  N33  1  0.47356490  0.61902289  0.79161825  1
