# generated using pymatgen
data_Ag27CO2
_symmetry_space_group_name_H-M   'P 1'
_cell_length_a   8.60517300
_cell_length_b   8.60496305
_cell_length_c   24.34014600
_cell_angle_alpha   89.99904118
_cell_angle_beta   89.99896131
_cell_angle_gamma   90.00613242
_symmetry_Int_Tables_number   1
_chemical_formula_structural   Ag27CO2
_chemical_formula_sum   'Ag27 C1 O2'
_cell_volume   1802.31954385
_cell_formula_units_Z   1
loop_
 _symmetry_equiv_pos_site_id
 _symmetry_equiv_pos_as_xyz
  1  'x, y, z'
loop_
 _atom_site_type_symbol
 _atom_site_label
 _atom_site_symmetry_multiplicity
 _atom_site_fract_x
 _atom_site_fract_y
 _atom_site_fract_z
 _atom_site_occupancy
  Ag  Ag0  1  0.33333300  0.00000000  0.45833300  1
  Ag  Ag1  1  0.33333300  0.33333300  0.45833300  1
  Ag  Ag2  1  0.33333300  0.66666700  0.45833300  1
  Ag  Ag3  1  0.66666700  0.00000000  0.45833300  1
  Ag  Ag4  1  0.66666700  0.33333300  0.45833300  1
  Ag  Ag5  1  0.66666700  0.66666700  0.45833300  1
  Ag  Ag6  1  0.00000000  0.00000000  0.45833300  1
  Ag  Ag7  1  0.00000000  0.33333300  0.45833300  1
  Ag  Ag8  1  0.00000000  0.66666700  0.45833300  1
  Ag  Ag9  1  0.33339330  0.99864211  0.62990442  1
  Ag  Ag10  1  0.33329522  0.33350596  0.63214784  1
  Ag  Ag11  1  0.33338631  0.66824437  0.62990535  1
  Ag  Ag12  1  0.66723869  0.99945793  0.62989656  1
  Ag  Ag13  1  0.66648347  0.33340396  0.63042396  1
  Ag  Ag14  1  0.66724297  0.66727049  0.62989087  1
  Ag  Ag15  1  0.99947578  0.99946312  0.62991033  1
  Ag  Ag16  1  0.00006519  0.33340270  0.63042323  1
  Ag  Ag17  1  0.99947078  0.66725798  0.62989924  1
  Ag  Ag18  1  0.16705039  0.16703563  0.54424989  1
  Ag  Ag19  1  0.16704496  0.49970022  0.54423824  1
  Ag  Ag20  1  0.16654890  0.83339383  0.54448632  1
  Ag  Ag21  1  0.49961648  0.16702888  0.54423831  1
  Ag  Ag22  1  0.49961660  0.49970503  0.54422851  1
  Ag  Ag23  1  0.50011471  0.83338883  0.54447346  1
  Ag  Ag24  1  0.83335415  0.16713095  0.54462726  1
  Ag  Ag25  1  0.83335103  0.49957362  0.54461127  1
  Ag  Ag26  1  0.83337454  0.83338588  0.54392596  1
  C  C27  1  0.33399204  0.33359400  0.72345736  1
  O  O28  1  0.33419764  0.46608597  0.74380155  1
  O  O29  1  0.33404826  0.20106434  0.74374216  1
