# generated using pymatgen
data_Fe4Te16Mo12HN2
_symmetry_space_group_name_H-M   'P 1'
_cell_length_a   7.22312727
_cell_length_b   7.08682392
_cell_length_c   29.37250900
_cell_angle_alpha   91.57772794
_cell_angle_beta   98.12045943
_cell_angle_gamma   93.99332592
_symmetry_Int_Tables_number   1
_chemical_formula_structural   Fe4Te16Mo12HN2
_chemical_formula_sum   'Fe4 Te16 Mo12 H1 N2'
_cell_volume   1483.79736813
_cell_formula_units_Z   1
loop_
 _symmetry_equiv_pos_site_id
 _symmetry_equiv_pos_as_xyz
  1  'x, y, z'
loop_
 _atom_site_type_symbol
 _atom_site_label
 _atom_site_symmetry_multiplicity
 _atom_site_fract_x
 _atom_site_fract_y
 _atom_site_fract_z
 _atom_site_occupancy
  Fe  Fe0  1  0.95275577  0.12411091  0.46967007  1
  Fe  Fe1  1  0.85575301  0.09584067  0.66753626  1
  Fe  Fe2  1  0.05693100  0.86054300  0.27656700  1
  Fe  Fe3  1  0.04864800  0.87615289  0.52223994  1
  Mo  Mo4  1  0.24906585  0.55186774  0.34904975  1
  Mo  Mo5  1  0.25349401  0.54035870  0.59786538  1
  Mo  Mo6  1  0.75163662  0.45014324  0.39645599  1
  Mo  Mo7  1  0.76486211  0.43736341  0.64170384  1
  Mo  Mo8  1  0.41619093  0.24908992  0.38220834  1
  Mo  Mo9  1  0.42743936  0.23277258  0.62920375  1
  Mo  Mo10  1  0.57841167  0.75186846  0.36290976  1
  Mo  Mo11  1  0.58854646  0.74392856  0.61028497  1
  Mo  Mo12  1  0.53260700  0.41261200  0.31013000  1
  Mo  Mo13  1  0.53944064  0.41334357  0.55693725  1
  Mo  Mo14  1  0.46395439  0.58660507  0.43633679  1
  Mo  Mo15  1  0.47819846  0.57300854  0.68520103  1
  Te  Te16  1  0.13156352  0.38045475  0.42718758  1
  Te  Te17  1  0.14253074  0.35566545  0.67669033  1
  Te  Te18  1  0.86624900  0.61870000  0.31855000  1
  Te  Te19  1  0.87577476  0.61852912  0.56596539  1
  Te  Te20  1  0.73106900  0.11857500  0.34560400  1
  Te  Te21  1  0.72912864  0.10209668  0.58244877  1
  Te  Te22  1  0.26761566  0.88155496  0.40092271  1
  Te  Te23  1  0.27984465  0.86682575  0.65134694  1
  Te  Te24  1  0.38690600  0.74931100  0.27459600  1
  Te  Te25  1  0.38018488  0.74254357  0.52280830  1
  Te  Te26  1  0.61728465  0.25204431  0.46963495  1
  Te  Te27  1  0.63021324  0.23599087  0.71597667  1
  Te  Te28  1  0.18432800  0.21398100  0.29715900  1
  Te  Te29  1  0.19460374  0.21629519  0.54411143  1
  Te  Te30  1  0.80884303  0.78054196  0.44887726  1
  Te  Te31  1  0.82821009  0.75856198  0.69838816  1
  N  N32  1  0.49042374  0.61448051  0.75035708  1
  N  N33  1  0.49234310  0.64359851  0.79070615  1
  H  H34  1  0.57369056  0.56312914  0.81419265  1
