# generated using pymatgen
data_Fe4Te16Mo12H
_symmetry_space_group_name_H-M   'P 1'
_cell_length_a   7.22312727
_cell_length_b   7.08682392
_cell_length_c   29.37250900
_cell_angle_alpha   91.57772794
_cell_angle_beta   98.12045943
_cell_angle_gamma   93.99332592
_symmetry_Int_Tables_number   1
_chemical_formula_structural   Fe4Te16Mo12H
_chemical_formula_sum   'Fe4 Te16 Mo12 H1'
_cell_volume   1483.79736813
_cell_formula_units_Z   1
loop_
 _symmetry_equiv_pos_site_id
 _symmetry_equiv_pos_as_xyz
  1  'x, y, z'
loop_
 _atom_site_type_symbol
 _atom_site_label
 _atom_site_symmetry_multiplicity
 _atom_site_fract_x
 _atom_site_fract_y
 _atom_site_fract_z
 _atom_site_occupancy
  Fe  Fe0  1  0.95880389  0.12443395  0.47004764  1
  Fe  Fe1  1  0.83452882  0.10950122  0.66982580  1
  Fe  Fe2  1  0.05693100  0.86054300  0.27656700  1
  Fe  Fe3  1  0.05640097  0.87655762  0.52154235  1
  Mo  Mo4  1  0.24964257  0.55179405  0.34910976  1
  Mo  Mo5  1  0.26180846  0.54083681  0.59746924  1
  Mo  Mo6  1  0.75381668  0.45010226  0.39637637  1
  Mo  Mo7  1  0.77319635  0.44401070  0.63928778  1
  Mo  Mo8  1  0.41723470  0.24934148  0.38219997  1
  Mo  Mo9  1  0.44344546  0.23487729  0.62972836  1
  Mo  Mo10  1  0.57947783  0.75162069  0.36276814  1
  Mo  Mo11  1  0.59664691  0.74621635  0.60964761  1
  Mo  Mo12  1  0.53260700  0.41261200  0.31013000  1
  Mo  Mo13  1  0.54790594  0.41185707  0.55575451  1
  Mo  Mo14  1  0.46721626  0.58678887  0.43627468  1
  Mo  Mo15  1  0.48462233  0.56171589  0.67848344  1
  Te  Te16  1  0.13430803  0.38180854  0.42757550  1
  Te  Te17  1  0.14803810  0.35161160  0.67643909  1
  Te  Te18  1  0.86624900  0.61870000  0.31855000  1
  Te  Te19  1  0.88393876  0.61949278  0.56419632  1
  Te  Te20  1  0.73106900  0.11857500  0.34560400  1
  Te  Te21  1  0.74255545  0.10482891  0.58239256  1
  Te  Te22  1  0.26937360  0.88149832  0.40096791  1
  Te  Te23  1  0.29075164  0.86818812  0.65154534  1
  Te  Te24  1  0.38690600  0.74931100  0.27459600  1
  Te  Te25  1  0.38747335  0.74296556  0.52285253  1
  Te  Te26  1  0.62116254  0.25058678  0.46913824  1
  Te  Te27  1  0.64553155  0.27191766  0.72754023  1
  Te  Te28  1  0.18432800  0.21398100  0.29715900  1
  Te  Te29  1  0.20573961  0.21353784  0.54473223  1
  Te  Te30  1  0.81211523  0.78203791  0.44846324  1
  Te  Te31  1  0.82579342  0.76289623  0.69868232  1
  H  H32  1  0.47179290  0.09936964  0.73357026  1
