# generated using pymatgen
data_Fe4Te16Mo12H3N
_symmetry_space_group_name_H-M   'P 1'
_cell_length_a   7.22312727
_cell_length_b   7.08682392
_cell_length_c   29.37250900
_cell_angle_alpha   91.57772794
_cell_angle_beta   98.12045943
_cell_angle_gamma   93.99332592
_symmetry_Int_Tables_number   1
_chemical_formula_structural   Fe4Te16Mo12H3N
_chemical_formula_sum   'Fe4 Te16 Mo12 H3 N1'
_cell_volume   1483.79736813
_cell_formula_units_Z   1
loop_
 _symmetry_equiv_pos_site_id
 _symmetry_equiv_pos_as_xyz
  1  'x, y, z'
loop_
 _atom_site_type_symbol
 _atom_site_label
 _atom_site_symmetry_multiplicity
 _atom_site_fract_x
 _atom_site_fract_y
 _atom_site_fract_z
 _atom_site_occupancy
  Fe  Fe0  1  0.93448971  0.12746086  0.46248177  1
  Fe  Fe1  1  0.83878185  0.10960920  0.68461219  1
  Fe  Fe2  1  0.05693100  0.86054300  0.27656700  1
  Fe  Fe3  1  0.04043685  0.86055239  0.52557347  1
  Mo  Mo4  1  0.24834168  0.55202099  0.34819089  1
  Mo  Mo5  1  0.21942606  0.54259936  0.59180931  1
  Mo  Mo6  1  0.74998732  0.45045212  0.39651725  1
  Mo  Mo7  1  0.71755198  0.43428096  0.64056390  1
  Mo  Mo8  1  0.41391167  0.24833057  0.38166925  1
  Mo  Mo9  1  0.38721587  0.23390169  0.62510852  1
  Mo  Mo10  1  0.57770323  0.75223892  0.36284141  1
  Mo  Mo11  1  0.55865465  0.74386183  0.60784441  1
  Mo  Mo12  1  0.53260700  0.41261200  0.31013000  1
  Mo  Mo13  1  0.51286076  0.40498728  0.55313561  1
  Mo  Mo14  1  0.46095141  0.58697887  0.43576844  1
  Mo  Mo15  1  0.43298553  0.56842655  0.67466359  1
  Te  Te16  1  0.12887459  0.38210969  0.42503229  1
  Te  Te17  1  0.09935121  0.37242317  0.66992550  1
  Te  Te18  1  0.86624900  0.61870000  0.31855000  1
  Te  Te19  1  0.84348398  0.61351966  0.56479003  1
  Te  Te20  1  0.73106900  0.11857500  0.34560400  1
  Te  Te21  1  0.70850661  0.10298993  0.58808548  1
  Te  Te22  1  0.26574806  0.88182590  0.39977665  1
  Te  Te23  1  0.24117786  0.87198662  0.64595929  1
  Te  Te24  1  0.38690600  0.74931100  0.27459600  1
  Te  Te25  1  0.36602324  0.74327841  0.51977907  1
  Te  Te26  1  0.60876924  0.24824319  0.46911716  1
  Te  Te27  1  0.55938341  0.25329250  0.71593014  1
  Te  Te28  1  0.18432800  0.21398100  0.29715900  1
  Te  Te29  1  0.16301975  0.21592141  0.53791503  1
  Te  Te30  1  0.81180327  0.77470563  0.45060127  1
  Te  Te31  1  0.77680863  0.74852491  0.69816598  1
  N  N32  1  0.98359791  0.12104345  0.75658528  1
  H  H33  1  0.12164291  0.08920702  0.76143931  1
  H  H34  1  0.98109875  0.25272349  0.77242713  1
  H  H35  1  0.91632527  0.02845712  0.77644339  1
