# generated using pymatgen
data_Ag27H
_symmetry_space_group_name_H-M   'P 1'
_cell_length_a   8.60517300
_cell_length_b   8.60496305
_cell_length_c   24.34014600
_cell_angle_alpha   89.99904118
_cell_angle_beta   89.99896131
_cell_angle_gamma   90.00613242
_symmetry_Int_Tables_number   1
_chemical_formula_structural   Ag27H
_chemical_formula_sum   'Ag27 H1'
_cell_volume   1802.31954385
_cell_formula_units_Z   1
loop_
 _symmetry_equiv_pos_site_id
 _symmetry_equiv_pos_as_xyz
  1  'x, y, z'
loop_
 _atom_site_type_symbol
 _atom_site_label
 _atom_site_symmetry_multiplicity
 _atom_site_fract_x
 _atom_site_fract_y
 _atom_site_fract_z
 _atom_site_occupancy
  Ag  Ag0  1  0.33333300  0.00000000  0.45833300  1
  Ag  Ag1  1  0.33333300  0.33333300  0.45833300  1
  Ag  Ag2  1  0.33333300  0.66666700  0.45833300  1
  Ag  Ag3  1  0.66666700  0.00000000  0.45833300  1
  Ag  Ag4  1  0.66666700  0.33333300  0.45833300  1
  Ag  Ag5  1  0.66666700  0.66666700  0.45833300  1
  Ag  Ag6  1  0.00000000  0.00000000  0.45833300  1
  Ag  Ag7  1  0.00000000  0.33333300  0.45833300  1
  Ag  Ag8  1  0.00000000  0.66666700  0.45833300  1
  Ag  Ag9  1  0.33517992  0.99999502  0.62873827  1
  Ag  Ag10  1  0.33482114  0.33482121  0.63028239  1
  Ag  Ag11  1  0.33482337  0.66515802  0.63028477  1
  Ag  Ag12  1  0.66483911  0.99999592  0.62873774  1
  Ag  Ag13  1  0.66515699  0.33482335  0.63028478  1
  Ag  Ag14  1  0.66515915  0.66516012  0.63028489  1
  Ag  Ag15  1  0.00000603  0.00000652  0.62923764  1
  Ag  Ag16  1  0.99999456  0.33518006  0.62873834  1
  Ag  Ag17  1  0.99999547  0.66484022  0.62873774  1
  Ag  Ag18  1  0.16766482  0.16766472  0.54431147  1
  Ag  Ag19  1  0.16739930  0.50000333  0.54346559  1
  Ag  Ag20  1  0.16766467  0.83233476  0.54431290  1
  Ag  Ag21  1  0.50000308  0.16739925  0.54346547  1
  Ag  Ag22  1  0.50000148  0.50000171  0.54057321  1
  Ag  Ag23  1  0.49999861  0.83258995  0.54346729  1
  Ag  Ag24  1  0.83233404  0.16766460  0.54431295  1
  Ag  Ag25  1  0.83258937  0.49999885  0.54346739  1
  Ag  Ag26  1  0.83233432  0.83233499  0.54431257  1
  H  H27  1  0.49998863  0.49998812  0.65130871  1
