# generated using pymatgen
data_Fe4Te16Mo12H3N
_symmetry_space_group_name_H-M   'P 1'
_cell_length_a   7.22312727
_cell_length_b   7.08682392
_cell_length_c   29.37250900
_cell_angle_alpha   91.57772794
_cell_angle_beta   98.12045943
_cell_angle_gamma   93.99332592
_symmetry_Int_Tables_number   1
_chemical_formula_structural   Fe4Te16Mo12H3N
_chemical_formula_sum   'Fe4 Te16 Mo12 H3 N1'
_cell_volume   1483.79736813
_cell_formula_units_Z   1
loop_
 _symmetry_equiv_pos_site_id
 _symmetry_equiv_pos_as_xyz
  1  'x, y, z'
loop_
 _atom_site_type_symbol
 _atom_site_label
 _atom_site_symmetry_multiplicity
 _atom_site_fract_x
 _atom_site_fract_y
 _atom_site_fract_z
 _atom_site_occupancy
  Fe  Fe0  1  0.94827070  0.13693639  0.46930819  1
  Fe  Fe1  1  0.85508280  0.07771906  0.66442019  1
  Fe  Fe2  1  0.05693100  0.86054300  0.27656700  1
  Fe  Fe3  1  0.05383568  0.85941885  0.52253021  1
  Mo  Mo4  1  0.24932280  0.55239719  0.34889170  1
  Mo  Mo5  1  0.25516639  0.52761825  0.59775693  1
  Mo  Mo6  1  0.75296495  0.45206633  0.39630226  1
  Mo  Mo7  1  0.76422720  0.42247206  0.63957057  1
  Mo  Mo8  1  0.41606536  0.24949495  0.38191993  1
  Mo  Mo9  1  0.43178873  0.21776267  0.62797386  1
  Mo  Mo10  1  0.57893088  0.75286753  0.36271316  1
  Mo  Mo11  1  0.59136851  0.73219207  0.60985640  1
  Mo  Mo12  1  0.53260700  0.41261200  0.31013000  1
  Mo  Mo13  1  0.53965247  0.40283722  0.55536716  1
  Mo  Mo14  1  0.46644145  0.58802733  0.43598018  1
  Mo  Mo15  1  0.48332773  0.54892684  0.68068337  1
  Te  Te16  1  0.13244421  0.38196794  0.42667929  1
  Te  Te17  1  0.14253738  0.33626901  0.67509287  1
  Te  Te18  1  0.86624900  0.61870000  0.31855000  1
  Te  Te19  1  0.87839997  0.60760432  0.56500672  1
  Te  Te20  1  0.73106900  0.11857500  0.34560400  1
  Te  Te21  1  0.72958742  0.08851555  0.57946260  1
  Te  Te22  1  0.26870693  0.88209498  0.40073809  1
  Te  Te23  1  0.28814268  0.85369553  0.65176301  1
  Te  Te24  1  0.38690600  0.74931100  0.27459600  1
  Te  Te25  1  0.38043760  0.73228438  0.52257678  1
  Te  Te26  1  0.61472611  0.25142594  0.46865093  1
  Te  Te27  1  0.64126296  0.22791134  0.71582519  1
  Te  Te28  1  0.18432800  0.21398100  0.29715900  1
  Te  Te29  1  0.19422928  0.20499733  0.54291972  1
  Te  Te30  1  0.81431052  0.78428520  0.44906667  1
  Te  Te31  1  0.83138477  0.74204339  0.69714236  1
  N  N32  1  0.45657186  0.61534394  0.75611160  1
  H  H33  1  0.58486761  0.64804910  0.77596939  1
  H  H34  1  0.37720069  0.72720132  0.76083644  1
  H  H35  1  0.39566911  0.50223132  0.77140392  1
