# generated using pymatgen
data_Fe2Mo6Se8N
_symmetry_space_group_name_H-M   'P 1'
_cell_length_a   6.73059675
_cell_length_b   6.68252955
_cell_length_c   28.41042900
_cell_angle_alpha   94.71078376
_cell_angle_beta   91.18717718
_cell_angle_gamma   96.76332947
_symmetry_Int_Tables_number   1
_chemical_formula_structural   Fe2Mo6Se8N
_chemical_formula_sum   'Fe4 Mo12 Se16 N2'
_cell_volume   1264.05235895
_cell_formula_units_Z   2
loop_
 _symmetry_equiv_pos_site_id
 _symmetry_equiv_pos_as_xyz
  1  'x, y, z'
loop_
 _atom_site_type_symbol
 _atom_site_label
 _atom_site_symmetry_multiplicity
 _atom_site_fract_x
 _atom_site_fract_y
 _atom_site_fract_z
 _atom_site_occupancy
  Fe  Fe0  1  0.92139930  0.14684988  0.48082976  1
  Fe  Fe1  1  0.85399221  0.10630213  0.65676920  1
  Fe  Fe2  1  0.08366100  0.85003700  0.25310200  1
  Fe  Fe3  1  0.09106375  0.85222773  0.48767996  1
  Mo  Mo4  1  0.23167733  0.53712482  0.34805777  1
  Mo  Mo5  1  0.23351733  0.53817926  0.58644690  1
  Mo  Mo6  1  0.76854909  0.46020702  0.38775416  1
  Mo  Mo7  1  0.76809738  0.45537676  0.62441166  1
  Mo  Mo8  1  0.41082379  0.22810766  0.37762147  1
  Mo  Mo9  1  0.40687553  0.22618287  0.61578826  1
  Mo  Mo10  1  0.59106141  0.77331947  0.35839666  1
  Mo  Mo11  1  0.59197151  0.76553718  0.59590219  1
  Mo  Mo12  1  0.54876300  0.41297700  0.30450800  1
  Mo  Mo13  1  0.54894730  0.41286753  0.54147347  1
  Mo  Mo14  1  0.45096284  0.58728392  0.43230294  1
  Mo  Mo15  1  0.45389618  0.58378817  0.67022169  1
  Se  Se16  1  0.11592729  0.36193856  0.42415506  1
  Se  Se17  1  0.11910981  0.37063804  0.66246810  1
  Se  Se18  1  0.88453700  0.63734700  0.31138600  1
  Se  Se19  1  0.88682421  0.63747882  0.54929006  1
  Se  Se20  1  0.73344684  0.13541853  0.33440075  1
  Se  Se21  1  0.73528926  0.12387695  0.56958401  1
  Se  Se22  1  0.26066470  0.86524477  0.40025324  1
  Se  Se23  1  0.27375826  0.86381692  0.63962106  1
  Se  Se24  1  0.39326800  0.73478000  0.28166600  1
  Se  Se25  1  0.39288215  0.73257831  0.51914517  1
  Se  Se26  1  0.60774195  0.26464975  0.45484877  1
  Se  Se27  1  0.59711899  0.26962367  0.69640944  1
  Se  Se28  1  0.21444700  0.18780600  0.29890600  1
  Se  Se29  1  0.21211499  0.19148557  0.53609983  1
  Se  Se30  1  0.78690999  0.81025803  0.43760968  1
  Se  Se31  1  0.80218461  0.77530389  0.67977598  1
  N  N32  1  0.42889317  0.64096247  0.74543521  1
  N  N33  1  0.43091026  0.64515453  0.78494559  1
