# generated using pymatgen
data_Ag27CO
_symmetry_space_group_name_H-M   'P 1'
_cell_length_a   8.60496519
_cell_length_b   8.60496881
_cell_length_c   23.47925300
_cell_angle_alpha   90.00483404
_cell_angle_beta   93.49762144
_cell_angle_gamma   119.99565775
_symmetry_Int_Tables_number   1
_chemical_formula_structural   Ag27CO
_chemical_formula_sum   'Ag27 C1 O1'
_cell_volume   1501.93330901
_cell_formula_units_Z   1
loop_
 _symmetry_equiv_pos_site_id
 _symmetry_equiv_pos_as_xyz
  1  'x, y, z'
loop_
 _atom_site_type_symbol
 _atom_site_label
 _atom_site_symmetry_multiplicity
 _atom_site_fract_x
 _atom_site_fract_y
 _atom_site_fract_z
 _atom_site_occupancy
  Ag  Ag0  1  0.20000000  0.26666700  0.40000000  1
  Ag  Ag1  1  0.20000000  0.60000000  0.40000000  1
  Ag  Ag2  1  0.20000000  0.93333300  0.40000000  1
  Ag  Ag3  1  0.53333300  0.26666700  0.40000000  1
  Ag  Ag4  1  0.53333300  0.60000000  0.40000000  1
  Ag  Ag5  1  0.53333300  0.93333300  0.40000000  1
  Ag  Ag6  1  0.86666700  0.26666700  0.40000000  1
  Ag  Ag7  1  0.86666700  0.60000000  0.40000000  1
  Ag  Ag8  1  0.86666700  0.93333300  0.40000000  1
  Ag  Ag9  1  0.33468017  0.16852783  0.50302567  1
  Ag  Ag10  1  0.33468841  0.49952485  0.50302384  1
  Ag  Ag11  1  0.33355310  0.83347639  0.50177943  1
  Ag  Ag12  1  0.66732839  0.16690950  0.50249769  1
  Ag  Ag13  1  0.66560181  0.49949226  0.50318428  1
  Ag  Ag14  1  0.66735246  0.83378181  0.50249584  1
  Ag  Ag15  1  0.00052676  0.16692604  0.50250973  1
  Ag  Ag16  1  0.00046454  0.50039899  0.50174330  1
  Ag  Ag17  1  0.00049526  0.83342448  0.50174227  1
  Ag  Ag18  1  0.13170711  0.06462847  0.60392368  1
  Ag  Ag19  1  0.13167569  0.40046693  0.60391443  1
  Ag  Ag20  1  0.13437536  0.73387936  0.60457581  1
  Ag  Ag21  1  0.46780201  0.06497739  0.60400241  1
  Ag  Ag22  1  0.46914468  0.40136372  0.60495882  1
  Ag  Ag23  1  0.46778903  0.73628989  0.60397094  1
  Ag  Ag24  1  0.80114810  0.06725627  0.60504036  1
  Ag  Ag25  1  0.80303163  0.40041394  0.60408423  1
  Ag  Ag26  1  0.80308188  0.73604414  0.60407590  1
  O  O27  1  0.45872087  0.39157891  0.74263252  1
  C  C28  1  0.46378957  0.39694005  0.69349838  1
