# generated using pymatgen
data_Ag27H
_symmetry_space_group_name_H-M   'P 1'
_cell_length_a   8.60496519
_cell_length_b   8.60496881
_cell_length_c   23.47925300
_cell_angle_alpha   90.00483404
_cell_angle_beta   93.49762144
_cell_angle_gamma   119.99565775
_symmetry_Int_Tables_number   1
_chemical_formula_structural   Ag27H
_chemical_formula_sum   'Ag27 H1'
_cell_volume   1501.93330901
_cell_formula_units_Z   1
loop_
 _symmetry_equiv_pos_site_id
 _symmetry_equiv_pos_as_xyz
  1  'x, y, z'
loop_
 _atom_site_type_symbol
 _atom_site_label
 _atom_site_symmetry_multiplicity
 _atom_site_fract_x
 _atom_site_fract_y
 _atom_site_fract_z
 _atom_site_occupancy
  Ag  Ag0  1  0.20000000  0.26666700  0.40000000  1
  Ag  Ag1  1  0.20000000  0.60000000  0.40000000  1
  Ag  Ag2  1  0.20000000  0.93333300  0.40000000  1
  Ag  Ag3  1  0.53333300  0.26666700  0.40000000  1
  Ag  Ag4  1  0.53333300  0.60000000  0.40000000  1
  Ag  Ag5  1  0.53333300  0.93333300  0.40000000  1
  Ag  Ag6  1  0.86666700  0.26666700  0.40000000  1
  Ag  Ag7  1  0.86666700  0.60000000  0.40000000  1
  Ag  Ag8  1  0.86666700  0.93333300  0.40000000  1
  Ag  Ag9  1  0.33362953  0.16667641  0.50136515  1
  Ag  Ag10  1  0.33363763  0.50030668  0.50136676  1
  Ag  Ag11  1  0.33384277  0.83360078  0.50260472  1
  Ag  Ag12  1  0.66685704  0.16719474  0.50250530  1
  Ag  Ag13  1  0.66646820  0.49991389  0.50171946  1
  Ag  Ag14  1  0.66685714  0.83300759  0.50250586  1
  Ag  Ag15  1  0.00149306  0.16741609  0.50264301  1
  Ag  Ag16  1  0.00066750  0.50027736  0.50254991  1
  Ag  Ag17  1  0.00067240  0.83374144  0.50254916  1
  Ag  Ag18  1  0.13405353  0.06673248  0.60484981  1
  Ag  Ag19  1  0.13405897  0.40068845  0.60484625  1
  Ag  Ag20  1  0.13447533  0.73394139  0.60423488  1
  Ag  Ag21  1  0.46800565  0.06643557  0.60458565  1
  Ag  Ag22  1  0.46768452  0.40053428  0.60173747  1
  Ag  Ag23  1  0.46801145  0.73494459  0.60458394  1
  Ag  Ag24  1  0.80116168  0.06725293  0.60433485  1
  Ag  Ag25  1  0.80252681  0.40054894  0.60450928  1
  Ag  Ag26  1  0.80252308  0.73535163  0.60450763  1
  H  H27  1  0.45911407  0.39619293  0.67186039  1
