# generated using pymatgen
data_Ag27CO
_symmetry_space_group_name_H-M   'P 1'
_cell_length_a   8.60517300
_cell_length_b   8.60496305
_cell_length_c   24.34014600
_cell_angle_alpha   89.99904118
_cell_angle_beta   89.99896131
_cell_angle_gamma   90.00613242
_symmetry_Int_Tables_number   1
_chemical_formula_structural   Ag27CO
_chemical_formula_sum   'Ag27 C1 O1'
_cell_volume   1802.31954385
_cell_formula_units_Z   1
loop_
 _symmetry_equiv_pos_site_id
 _symmetry_equiv_pos_as_xyz
  1  'x, y, z'
loop_
 _atom_site_type_symbol
 _atom_site_label
 _atom_site_symmetry_multiplicity
 _atom_site_fract_x
 _atom_site_fract_y
 _atom_site_fract_z
 _atom_site_occupancy
  Ag  Ag0  1  0.33333300  0.00000000  0.45833300  1
  Ag  Ag1  1  0.33333300  0.33333300  0.45833300  1
  Ag  Ag2  1  0.33333300  0.66666700  0.45833300  1
  Ag  Ag3  1  0.66666700  0.00000000  0.45833300  1
  Ag  Ag4  1  0.66666700  0.33333300  0.45833300  1
  Ag  Ag5  1  0.66666700  0.66666700  0.45833300  1
  Ag  Ag6  1  0.00000000  0.00000000  0.45833300  1
  Ag  Ag7  1  0.00000000  0.33333300  0.45833300  1
  Ag  Ag8  1  0.00000000  0.66666700  0.45833300  1
  Ag  Ag9  1  0.33318520  0.99696870  0.62959661  1
  Ag  Ag10  1  0.33329314  0.33329267  0.62932739  1
  Ag  Ag11  1  0.33315993  0.67035956  0.62948365  1
  Ag  Ag12  1  0.66701775  0.99972991  0.62968495  1
  Ag  Ag13  1  0.67035665  0.33315890  0.62948370  1
  Ag  Ag14  1  0.66705733  0.66705843  0.62959033  1
  Ag  Ag15  1  0.99975820  0.99975953  0.62975768  1
  Ag  Ag16  1  0.99696618  0.33318428  0.62959494  1
  Ag  Ag17  1  0.99972843  0.66701901  0.62968324  1
  Ag  Ag18  1  0.16738595  0.16738544  0.54434763  1
  Ag  Ag19  1  0.16732939  0.49933289  0.54426163  1
  Ag  Ag20  1  0.16611807  0.83338227  0.54395602  1
  Ag  Ag21  1  0.49933174  0.16732918  0.54426239  1
  Ag  Ag22  1  0.49939363  0.49939404  0.54416990  1
  Ag  Ag23  1  0.50046007  0.83338240  0.54397657  1
  Ag  Ag24  1  0.83338121  0.16611761  0.54395576  1
  Ag  Ag25  1  0.83338150  0.50046027  0.54397624  1
  Ag  Ag26  1  0.83338512  0.83338609  0.54404817  1
  O  O27  1  0.31922110  0.31912292  0.76229789  1
  C  C28  1  0.33154741  0.33153528  0.71523694  1
