# generated using pymatgen
data_Fe4Mo12HSe16
_symmetry_space_group_name_H-M   'P 1'
_cell_length_a   6.73059675
_cell_length_b   6.68252955
_cell_length_c   28.41042900
_cell_angle_alpha   94.71078376
_cell_angle_beta   91.18717718
_cell_angle_gamma   96.76332947
_symmetry_Int_Tables_number   1
_chemical_formula_structural   Fe4Mo12HSe16
_chemical_formula_sum   'Fe4 Mo12 H1 Se16'
_cell_volume   1264.05235895
_cell_formula_units_Z   1
loop_
 _symmetry_equiv_pos_site_id
 _symmetry_equiv_pos_as_xyz
  1  'x, y, z'
loop_
 _atom_site_type_symbol
 _atom_site_label
 _atom_site_symmetry_multiplicity
 _atom_site_fract_x
 _atom_site_fract_y
 _atom_site_fract_z
 _atom_site_occupancy
  Fe  Fe0  1  0.92949812  0.15493599  0.48013639  1
  Fe  Fe1  1  0.80053053  0.12259642  0.65316677  1
  Fe  Fe2  1  0.08366100  0.85003700  0.25310200  1
  Fe  Fe3  1  0.10173672  0.86299064  0.48256150  1
  Mo  Mo4  1  0.23230267  0.53790302  0.34793725  1
  Mo  Mo5  1  0.23410974  0.53988668  0.58613787  1
  Mo  Mo6  1  0.76957212  0.46202621  0.38777688  1
  Mo  Mo7  1  0.77301628  0.46700995  0.62192302  1
  Mo  Mo8  1  0.41193021  0.22990117  0.37759344  1
  Mo  Mo9  1  0.41600364  0.22725278  0.61666501  1
  Mo  Mo10  1  0.59242762  0.77421051  0.35816592  1
  Mo  Mo11  1  0.59068518  0.77439448  0.59590982  1
  Mo  Mo12  1  0.54876300  0.41297700  0.30450800  1
  Mo  Mo13  1  0.55097220  0.41717760  0.54121692  1
  Mo  Mo14  1  0.45181722  0.58902445  0.43226686  1
  Mo  Mo15  1  0.44811371  0.58007696  0.66734817  1
  Se  Se16  1  0.11790160  0.36420309  0.42397153  1
  Se  Se17  1  0.11024186  0.35695000  0.66106057  1
  Se  Se18  1  0.88453700  0.63734700  0.31138600  1
  Se  Se19  1  0.88809324  0.64636665  0.54869350  1
  Se  Se20  1  0.73454731  0.13662449  0.33449046  1
  Se  Se21  1  0.73694187  0.12984495  0.56783503  1
  Se  Se22  1  0.26174336  0.86779573  0.39939701  1
  Se  Se23  1  0.26946106  0.86545218  0.64005234  1
  Se  Se24  1  0.39326800  0.73478000  0.28166600  1
  Se  Se25  1  0.39073322  0.73347340  0.51929527  1
  Se  Se26  1  0.60902373  0.26716111  0.45485201  1
  Se  Se27  1  0.58613329  0.28884825  0.70726051  1
  Se  Se28  1  0.21444700  0.18780600  0.29890600  1
  Se  Se29  1  0.21750548  0.19143340  0.53737803  1
  Se  Se30  1  0.78529611  0.81352318  0.43748002  1
  Se  Se31  1  0.78883593  0.78775216  0.67901711  1
  H  H32  1  0.41904083  0.13473398  0.72108659  1
