# generated using pymatgen
data_Ag27HCO
_symmetry_space_group_name_H-M   'P 1'
_cell_length_a   8.60517300
_cell_length_b   8.60496305
_cell_length_c   24.34014600
_cell_angle_alpha   89.99904118
_cell_angle_beta   89.99896131
_cell_angle_gamma   90.00613242
_symmetry_Int_Tables_number   1
_chemical_formula_structural   Ag27HCO
_chemical_formula_sum   'Ag27 H1 C1 O1'
_cell_volume   1802.31954385
_cell_formula_units_Z   1
loop_
 _symmetry_equiv_pos_site_id
 _symmetry_equiv_pos_as_xyz
  1  'x, y, z'
loop_
 _atom_site_type_symbol
 _atom_site_label
 _atom_site_symmetry_multiplicity
 _atom_site_fract_x
 _atom_site_fract_y
 _atom_site_fract_z
 _atom_site_occupancy
  Ag  Ag0  1  0.33333300  0.00000000  0.45833300  1
  Ag  Ag1  1  0.33333300  0.33333300  0.45833300  1
  Ag  Ag2  1  0.33333300  0.66666700  0.45833300  1
  Ag  Ag3  1  0.66666700  0.00000000  0.45833300  1
  Ag  Ag4  1  0.66666700  0.33333300  0.45833300  1
  Ag  Ag5  1  0.66666700  0.66666700  0.45833300  1
  Ag  Ag6  1  0.00000000  0.00000000  0.45833300  1
  Ag  Ag7  1  0.00000000  0.33333300  0.45833300  1
  Ag  Ag8  1  0.00000000  0.66666700  0.45833300  1
  Ag  Ag9  1  0.33538948  0.00244121  0.62812972  1
  Ag  Ag10  1  0.35802870  0.33716468  0.63190462  1
  Ag  Ag11  1  0.33563775  0.67061614  0.62823115  1
  Ag  Ag12  1  0.66747455  0.00067421  0.62855367  1
  Ag  Ag13  1  0.67711899  0.33372956  0.62912121  1
  Ag  Ag14  1  0.66779634  0.66667555  0.62869113  1
  Ag  Ag15  1  0.99981727  0.99954659  0.62862943  1
  Ag  Ag16  1  0.99766005  0.33314507  0.63439913  1
  Ag  Ag17  1  0.00029979  0.66765271  0.62863601  1
  Ag  Ag18  1  0.16867383  0.16879319  0.54303234  1
  Ag  Ag19  1  0.16931640  0.49901784  0.54353625  1
  Ag  Ag20  1  0.16686187  0.83431572  0.54397242  1
  Ag  Ag21  1  0.50199555  0.16949310  0.54334171  1
  Ag  Ag22  1  0.50208423  0.49937346  0.54344512  1
  Ag  Ag23  1  0.50086894  0.83440541  0.54324847  1
  Ag  Ag24  1  0.83730703  0.16877424  0.54385432  1
  Ag  Ag25  1  0.83819945  0.49791865  0.54408050  1
  Ag  Ag26  1  0.83342086  0.83341079  0.54339634  1
  C  C27  1  0.18293535  0.31509375  0.69113922  1
  H  H28  1  0.28338612  0.29832878  0.76214155  1
  O  O29  1  0.17952263  0.30178141  0.74332512  1
