# generated using pymatgen
data_Fe4Te16Mo12HN2
_symmetry_space_group_name_H-M   'P 1'
_cell_length_a   7.22312727
_cell_length_b   7.08682392
_cell_length_c   29.37250900
_cell_angle_alpha   91.57772794
_cell_angle_beta   98.12045943
_cell_angle_gamma   93.99332592
_symmetry_Int_Tables_number   1
_chemical_formula_structural   Fe4Te16Mo12HN2
_chemical_formula_sum   'Fe4 Te16 Mo12 H1 N2'
_cell_volume   1483.79736813
_cell_formula_units_Z   1
loop_
 _symmetry_equiv_pos_site_id
 _symmetry_equiv_pos_as_xyz
  1  'x, y, z'
loop_
 _atom_site_type_symbol
 _atom_site_label
 _atom_site_symmetry_multiplicity
 _atom_site_fract_x
 _atom_site_fract_y
 _atom_site_fract_z
 _atom_site_occupancy
  Fe  Fe0  1  0.95204299  0.12450241  0.46970799  1
  Fe  Fe1  1  0.85479151  0.10000266  0.66768447  1
  Fe  Fe2  1  0.05693100  0.86054300  0.27656700  1
  Fe  Fe3  1  0.04864293  0.87666015  0.52222132  1
  Mo  Mo4  1  0.24912775  0.55179656  0.34905635  1
  Mo  Mo5  1  0.25282593  0.54245787  0.59782399  1
  Mo  Mo6  1  0.75156244  0.45010066  0.39644936  1
  Mo  Mo7  1  0.76389599  0.44011475  0.64184756  1
  Mo  Mo8  1  0.41625173  0.24908516  0.38222408  1
  Mo  Mo9  1  0.42663330  0.23523652  0.62931470  1
  Mo  Mo10  1  0.57850800  0.75185197  0.36286689  1
  Mo  Mo11  1  0.58736215  0.74616284  0.61022350  1
  Mo  Mo12  1  0.53260700  0.41261200  0.31013000  1
  Mo  Mo13  1  0.53870736  0.41509390  0.55700529  1
  Mo  Mo14  1  0.46387636  0.58690637  0.43629830  1
  Mo  Mo15  1  0.47716430  0.57622609  0.68544957  1
  Te  Te16  1  0.13158088  0.38046278  0.42719143  1
  Te  Te17  1  0.14165898  0.35855470  0.67672015  1
  Te  Te18  1  0.86624900  0.61870000  0.31855000  1
  Te  Te19  1  0.87489470  0.62032422  0.56603306  1
  Te  Te20  1  0.73106900  0.11857500  0.34560400  1
  Te  Te21  1  0.72821232  0.10416683  0.58262349  1
  Te  Te22  1  0.26768650  0.88167213  0.40088270  1
  Te  Te23  1  0.27865172  0.86915238  0.65122057  1
  Te  Te24  1  0.38690600  0.74931100  0.27459600  1
  Te  Te25  1  0.37995951  0.74395656  0.52264594  1
  Te  Te26  1  0.61694705  0.25254364  0.46972049  1
  Te  Te27  1  0.62882067  0.23842947  0.71610215  1
  Te  Te28  1  0.18432800  0.21398100  0.29715900  1
  Te  Te29  1  0.19398657  0.21752982  0.54422888  1
  Te  Te30  1  0.80873753  0.78073347  0.44883213  1
  Te  Te31  1  0.82717359  0.76215655  0.69829173  1
  N  N32  1  0.49042378  0.61685137  0.75042423  1
  N  N33  1  0.49382839  0.64417386  0.79111792  1
  H  H34  1  0.57744759  0.56151130  0.81348816  1
