# generated using pymatgen
data_Fe2Mo6Se8N
_symmetry_space_group_name_H-M   'P 1'
_cell_length_a   6.73059675
_cell_length_b   6.68252955
_cell_length_c   28.41042900
_cell_angle_alpha   94.71078376
_cell_angle_beta   91.18717718
_cell_angle_gamma   96.76332947
_symmetry_Int_Tables_number   1
_chemical_formula_structural   Fe2Mo6Se8N
_chemical_formula_sum   'Fe4 Mo12 Se16 N2'
_cell_volume   1264.05235895
_cell_formula_units_Z   2
loop_
 _symmetry_equiv_pos_site_id
 _symmetry_equiv_pos_as_xyz
  1  'x, y, z'
loop_
 _atom_site_type_symbol
 _atom_site_label
 _atom_site_symmetry_multiplicity
 _atom_site_fract_x
 _atom_site_fract_y
 _atom_site_fract_z
 _atom_site_occupancy
  Fe  Fe0  1  0.92103630  0.15076094  0.47840138  1
  Fe  Fe1  1  0.81231018  0.10515285  0.64938724  1
  Fe  Fe2  1  0.08366100  0.85003700  0.25310200  1
  Fe  Fe3  1  0.08269101  0.85121505  0.48690963  1
  Mo  Mo4  1  0.23060168  0.53698685  0.34743027  1
  Mo  Mo5  1  0.22215502  0.53911773  0.58404617  1
  Mo  Mo6  1  0.76813831  0.46035689  0.38740443  1
  Mo  Mo7  1  0.75425766  0.45981007  0.62294692  1
  Mo  Mo8  1  0.41022885  0.22761781  0.37707940  1
  Mo  Mo9  1  0.39762779  0.22554692  0.61397033  1
  Mo  Mo10  1  0.59032714  0.77368280  0.35796472  1
  Mo  Mo11  1  0.58050441  0.77256555  0.59444878  1
  Mo  Mo12  1  0.54876300  0.41297700  0.30450800  1
  Mo  Mo13  1  0.54018820  0.41591872  0.53958379  1
  Mo  Mo14  1  0.44948147  0.58778385  0.43160708  1
  Mo  Mo15  1  0.43622444  0.58369049  0.66513295  1
  Se  Se16  1  0.11577220  0.36263156  0.42320863  1
  Se  Se17  1  0.10132363  0.36156871  0.65956061  1
  Se  Se18  1  0.88453700  0.63734700  0.31138600  1
  Se  Se19  1  0.87607598  0.64218352  0.54831840  1
  Se  Se20  1  0.73379589  0.13537158  0.33409236  1
  Se  Se21  1  0.72337059  0.12694353  0.56669273  1
  Se  Se22  1  0.25951593  0.86522619  0.39937885  1
  Se  Se23  1  0.25629115  0.86548735  0.63741430  1
  Se  Se24  1  0.39326800  0.73478000  0.28166600  1
  Se  Se25  1  0.38539715  0.73486532  0.51741698  1
  Se  Se26  1  0.60489307  0.26442356  0.45412168  1
  Se  Se27  1  0.58188184  0.28200711  0.69570589  1
  Se  Se28  1  0.21444700  0.18780600  0.29890600  1
  Se  Se29  1  0.20554843  0.19161933  0.53433760  1
  Se  Se30  1  0.78411575  0.81086677  0.43683651  1
  Se  Se31  1  0.77962100  0.78152151  0.67847398  1
  N  N32  1  0.96478293  0.13991552  0.76202542  1
  N  N33  1  0.85797391  0.11910377  0.79083468  1
