# generated using pymatgen
data_Ag27HO
_symmetry_space_group_name_H-M   'P 1'
_cell_length_a   8.60517300
_cell_length_b   8.60496305
_cell_length_c   24.34014600
_cell_angle_alpha   89.99904118
_cell_angle_beta   89.99896131
_cell_angle_gamma   90.00613242
_symmetry_Int_Tables_number   1
_chemical_formula_structural   Ag27HO
_chemical_formula_sum   'Ag27 H1 O1'
_cell_volume   1802.31954385
_cell_formula_units_Z   1
loop_
 _symmetry_equiv_pos_site_id
 _symmetry_equiv_pos_as_xyz
  1  'x, y, z'
loop_
 _atom_site_type_symbol
 _atom_site_label
 _atom_site_symmetry_multiplicity
 _atom_site_fract_x
 _atom_site_fract_y
 _atom_site_fract_z
 _atom_site_occupancy
  Ag  Ag0  1  0.33333300  0.00000000  0.45833300  1
  Ag  Ag1  1  0.33333300  0.33333300  0.45833300  1
  Ag  Ag2  1  0.33333300  0.66666700  0.45833300  1
  Ag  Ag3  1  0.66666700  0.00000000  0.45833300  1
  Ag  Ag4  1  0.66666700  0.33333300  0.45833300  1
  Ag  Ag5  1  0.66666700  0.66666700  0.45833300  1
  Ag  Ag6  1  0.00000000  0.00000000  0.45833300  1
  Ag  Ag7  1  0.00000000  0.33333300  0.45833300  1
  Ag  Ag8  1  0.00000000  0.66666700  0.45833300  1
  Ag  Ag9  1  0.33337107  0.00191734  0.63039310  1
  Ag  Ag10  1  0.33330839  0.33330856  0.62315882  1
  Ag  Ag11  1  0.33337190  0.66464687  0.63038497  1
  Ag  Ag12  1  0.66653594  0.00010895  0.62715175  1
  Ag  Ag13  1  0.66464782  0.33337210  0.63038527  1
  Ag  Ag14  1  0.66654069  0.66654032  0.62713360  1
  Ag  Ag15  1  0.00010907  0.00011145  0.62717743  1
  Ag  Ag16  1  0.00191536  0.33337115  0.63039350  1
  Ag  Ag17  1  0.00010682  0.66653506  0.62715113  1
  Ag  Ag18  1  0.16629448  0.16629538  0.54236758  1
  Ag  Ag19  1  0.16629814  0.50037520  0.54235956  1
  Ag  Ag20  1  0.16861937  0.83337528  0.54409078  1
  Ag  Ag21  1  0.50037572  0.16629879  0.54235949  1
  Ag  Ag22  1  0.50037350  0.50037300  0.54235073  1
  Ag  Ag23  1  0.49807907  0.83337401  0.54407565  1
  Ag  Ag24  1  0.83337461  0.16861947  0.54408962  1
  Ag  Ag25  1  0.83337346  0.49807939  0.54407474  1
  Ag  Ag26  1  0.83337848  0.83337920  0.54257301  1
  O  O27  1  0.33354364  0.33354443  0.70605649  1
  H  H28  1  0.33332607  0.33332758  0.74644968  1
