# generated using pymatgen
data_Ag27H
_symmetry_space_group_name_H-M   'P 1'
_cell_length_a   8.60517300
_cell_length_b   8.60496305
_cell_length_c   24.34014600
_cell_angle_alpha   89.99904118
_cell_angle_beta   89.99896131
_cell_angle_gamma   90.00613242
_symmetry_Int_Tables_number   1
_chemical_formula_structural   Ag27H
_chemical_formula_sum   'Ag27 H1'
_cell_volume   1802.31954385
_cell_formula_units_Z   1
loop_
 _symmetry_equiv_pos_site_id
 _symmetry_equiv_pos_as_xyz
  1  'x, y, z'
loop_
 _atom_site_type_symbol
 _atom_site_label
 _atom_site_symmetry_multiplicity
 _atom_site_fract_x
 _atom_site_fract_y
 _atom_site_fract_z
 _atom_site_occupancy
  Ag  Ag0  1  0.33333300  0.00000000  0.45833300  1
  Ag  Ag1  1  0.33333300  0.33333300  0.45833300  1
  Ag  Ag2  1  0.33333300  0.66666700  0.45833300  1
  Ag  Ag3  1  0.66666700  0.00000000  0.45833300  1
  Ag  Ag4  1  0.66666700  0.33333300  0.45833300  1
  Ag  Ag5  1  0.66666700  0.66666700  0.45833300  1
  Ag  Ag6  1  0.00000000  0.00000000  0.45833300  1
  Ag  Ag7  1  0.00000000  0.33333300  0.45833300  1
  Ag  Ag8  1  0.00000000  0.66666700  0.45833300  1
  Ag  Ag9  1  0.33455528  0.99998390  0.62897902  1
  Ag  Ag10  1  0.33452709  0.33452731  0.63066246  1
  Ag  Ag11  1  0.33453034  0.66544286  0.63066284  1
  Ag  Ag12  1  0.66544209  0.99998837  0.62898070  1
  Ag  Ag13  1  0.66544184  0.33453057  0.63066284  1
  Ag  Ag14  1  0.66544503  0.66544604  0.63066258  1
  Ag  Ag15  1  0.99999629  0.99999694  0.62954893  1
  Ag  Ag16  1  0.99998332  0.33455574  0.62897908  1
  Ag  Ag17  1  0.99998777  0.66544287  0.62898075  1
  Ag  Ag18  1  0.16769804  0.16769805  0.54442272  1
  Ag  Ag19  1  0.16736166  0.49999795  0.54373023  1
  Ag  Ag20  1  0.16769792  0.83229524  0.54442241  1
  Ag  Ag21  1  0.49999762  0.16736157  0.54373014  1
  Ag  Ag22  1  0.49999132  0.49999159  0.54074844  1
  Ag  Ag23  1  0.49999761  0.83262154  0.54372955  1
  Ag  Ag24  1  0.83229465  0.16769791  0.54442242  1
  Ag  Ag25  1  0.83262084  0.49999792  0.54372967  1
  Ag  Ag26  1  0.83229621  0.83229681  0.54442320  1
  H  H27  1  0.49998034  0.49998133  0.65268243  1
