# generated using pymatgen
data_Fe4Te16Mo12H
_symmetry_space_group_name_H-M   'P 1'
_cell_length_a   7.22312727
_cell_length_b   7.08682392
_cell_length_c   29.37250900
_cell_angle_alpha   91.57772794
_cell_angle_beta   98.12045943
_cell_angle_gamma   93.99332592
_symmetry_Int_Tables_number   1
_chemical_formula_structural   Fe4Te16Mo12H
_chemical_formula_sum   'Fe4 Te16 Mo12 H1'
_cell_volume   1483.79736813
_cell_formula_units_Z   1
loop_
 _symmetry_equiv_pos_site_id
 _symmetry_equiv_pos_as_xyz
  1  'x, y, z'
loop_
 _atom_site_type_symbol
 _atom_site_label
 _atom_site_symmetry_multiplicity
 _atom_site_fract_x
 _atom_site_fract_y
 _atom_site_fract_z
 _atom_site_occupancy
  Fe  Fe0  1  0.94778787  0.13741959  0.46956211  1
  Fe  Fe1  1  0.84825562  0.08973061  0.66514039  1
  Fe  Fe2  1  0.05693100  0.86054300  0.27656700  1
  Fe  Fe3  1  0.05320206  0.85997717  0.52239444  1
  Mo  Mo4  1  0.24915749  0.55193285  0.34882072  1
  Mo  Mo5  1  0.25061401  0.53241480  0.59695413  1
  Mo  Mo6  1  0.75255955  0.45161862  0.39631277  1
  Mo  Mo7  1  0.76283916  0.42979729  0.63980371  1
  Mo  Mo8  1  0.41611060  0.24907708  0.38195471  1
  Mo  Mo9  1  0.43038856  0.22021785  0.62811146  1
  Mo  Mo10  1  0.57905450  0.75252646  0.36258222  1
  Mo  Mo11  1  0.58863544  0.73997487  0.60923791  1
  Mo  Mo12  1  0.53260700  0.41261200  0.31013000  1
  Mo  Mo13  1  0.53649778  0.40718994  0.55593054  1
  Mo  Mo14  1  0.46605299  0.58800867  0.43577647  1
  Mo  Mo15  1  0.47895092  0.55659075  0.67963165  1
  Te  Te16  1  0.13223187  0.38146097  0.42665849  1
  Te  Te17  1  0.14086304  0.34439192  0.67549539  1
  Te  Te18  1  0.86624900  0.61870000  0.31855000  1
  Te  Te19  1  0.87448349  0.61222989  0.56480547  1
  Te  Te20  1  0.73106900  0.11857500  0.34560400  1
  Te  Te21  1  0.72974846  0.09460757  0.57984329  1
  Te  Te22  1  0.26853590  0.88185571  0.40052319  1
  Te  Te23  1  0.28383696  0.85843678  0.65133125  1
  Te  Te24  1  0.38690600  0.74931100  0.27459600  1
  Te  Te25  1  0.37946142  0.73575036  0.52198791  1
  Te  Te26  1  0.61360989  0.25208551  0.46892421  1
  Te  Te27  1  0.63490181  0.24060123  0.71690688  1
  Te  Te28  1  0.18432800  0.21398100  0.29715900  1
  Te  Te29  1  0.19136972  0.20664202  0.54341001  1
  Te  Te30  1  0.81355444  0.78490426  0.44876498  1
  Te  Te31  1  0.82263907  0.75261841  0.69747607  1
  H  H32  1  0.46150902  0.61456898  0.73700039  1
