# generated using pymatgen
data_Ag27H
_symmetry_space_group_name_H-M   'P 1'
_cell_length_a   8.60496519
_cell_length_b   8.60496881
_cell_length_c   23.47925300
_cell_angle_alpha   90.00483404
_cell_angle_beta   93.49762144
_cell_angle_gamma   119.99565775
_symmetry_Int_Tables_number   1
_chemical_formula_structural   Ag27H
_chemical_formula_sum   'Ag27 H1'
_cell_volume   1501.93330901
_cell_formula_units_Z   1
loop_
 _symmetry_equiv_pos_site_id
 _symmetry_equiv_pos_as_xyz
  1  'x, y, z'
loop_
 _atom_site_type_symbol
 _atom_site_label
 _atom_site_symmetry_multiplicity
 _atom_site_fract_x
 _atom_site_fract_y
 _atom_site_fract_z
 _atom_site_occupancy
  Ag  Ag0  1  0.20000000  0.26666700  0.40000000  1
  Ag  Ag1  1  0.20000000  0.60000000  0.40000000  1
  Ag  Ag2  1  0.20000000  0.93333300  0.40000000  1
  Ag  Ag3  1  0.53333300  0.26666700  0.40000000  1
  Ag  Ag4  1  0.53333300  0.60000000  0.40000000  1
  Ag  Ag5  1  0.53333300  0.93333300  0.40000000  1
  Ag  Ag6  1  0.86666700  0.26666700  0.40000000  1
  Ag  Ag7  1  0.86666700  0.60000000  0.40000000  1
  Ag  Ag8  1  0.86666700  0.93333300  0.40000000  1
  Ag  Ag9  1  0.33619870  0.16742757  0.50151111  1
  Ag  Ag10  1  0.33620036  0.50205135  0.50150952  1
  Ag  Ag11  1  0.33605926  0.83468216  0.50233392  1
  Ag  Ag12  1  0.66940585  0.16810540  0.50231739  1
  Ag  Ag13  1  0.66715372  0.50022913  0.50239778  1
  Ag  Ag14  1  0.66941222  0.83460510  0.50231628  1
  Ag  Ag15  1  0.00173036  0.16750668  0.50148946  1
  Ag  Ag16  1  0.00380444  0.50029913  0.50240909  1
  Ag  Ag17  1  0.00380000  0.83680354  0.50240822  1
  Ag  Ag18  1  0.13613717  0.06508322  0.60531517  1
  Ag  Ag19  1  0.13611224  0.40432629  0.60530860  1
  Ag  Ag20  1  0.13758719  0.73544745  0.60373575  1
  Ag  Ag21  1  0.47173392  0.06817668  0.60402965  1
  Ag  Ag22  1  0.47551334  0.40437709  0.60537271  1
  Ag  Ag23  1  0.47172788  0.73680784  0.60401774  1
  Ag  Ag24  1  0.80310318  0.06818549  0.60396132  1
  Ag  Ag25  1  0.80442490  0.40221779  0.60373960  1
  Ag  Ag26  1  0.80444029  0.73549531  0.60373518  1
  H  H27  1  0.25749154  0.29539694  0.64179873  1
