# generated using pymatgen
data_Fe4Te16Mo12H
_symmetry_space_group_name_H-M   'P 1'
_cell_length_a   7.22312727
_cell_length_b   7.08682392
_cell_length_c   29.37250900
_cell_angle_alpha   91.57772794
_cell_angle_beta   98.12045943
_cell_angle_gamma   93.99332592
_symmetry_Int_Tables_number   1
_chemical_formula_structural   Fe4Te16Mo12H
_chemical_formula_sum   'Fe4 Te16 Mo12 H1'
_cell_volume   1483.79736813
_cell_formula_units_Z   1
loop_
 _symmetry_equiv_pos_site_id
 _symmetry_equiv_pos_as_xyz
  1  'x, y, z'
loop_
 _atom_site_type_symbol
 _atom_site_label
 _atom_site_symmetry_multiplicity
 _atom_site_fract_x
 _atom_site_fract_y
 _atom_site_fract_z
 _atom_site_occupancy
  Fe  Fe0  1  0.94692508  0.13873984  0.46923503  1
  Fe  Fe1  1  0.83862314  0.09221232  0.68343284  1
  Fe  Fe2  1  0.05693100  0.86054300  0.27656700  1
  Fe  Fe3  1  0.05457336  0.86106976  0.52229132  1
  Mo  Mo4  1  0.24918749  0.55223174  0.34878691  1
  Mo  Mo5  1  0.24562274  0.54342379  0.59599869  1
  Mo  Mo6  1  0.75278662  0.45204534  0.39642426  1
  Mo  Mo7  1  0.74883568  0.44388830  0.64065160  1
  Mo  Mo8  1  0.41629842  0.24978059  0.38207074  1
  Mo  Mo9  1  0.41792951  0.23773705  0.62900902  1
  Mo  Mo10  1  0.57880219  0.75289291  0.36258288  1
  Mo  Mo11  1  0.58322958  0.74580962  0.60948446  1
  Mo  Mo12  1  0.53260700  0.41261200  0.31013000  1
  Mo  Mo13  1  0.53353665  0.41000681  0.55552517  1
  Mo  Mo14  1  0.46627325  0.58921769  0.43597361  1
  Mo  Mo15  1  0.46905265  0.57273161  0.67766044  1
  Te  Te16  1  0.13262691  0.38280037  0.42666568  1
  Te  Te17  1  0.13186171  0.37189892  0.67571289  1
  Te  Te18  1  0.86624900  0.61870000  0.31855000  1
  Te  Te19  1  0.86921398  0.61714865  0.56487598  1
  Te  Te20  1  0.73106900  0.11857500  0.34560400  1
  Te  Te21  1  0.73089411  0.10638171  0.58637390  1
  Te  Te22  1  0.26814469  0.88242973  0.40031402  1
  Te  Te23  1  0.27293197  0.87309749  0.64969998  1
  Te  Te24  1  0.38690600  0.74931100  0.27459600  1
  Te  Te25  1  0.38300576  0.74304471  0.52156348  1
  Te  Te26  1  0.61382166  0.25217192  0.46952687  1
  Te  Te27  1  0.59855033  0.25914338  0.72016402  1
  Te  Te28  1  0.18432800  0.21398100  0.29715900  1
  Te  Te29  1  0.18807317  0.21229493  0.54316839  1
  Te  Te30  1  0.81465085  0.78536311  0.44880121  1
  Te  Te31  1  0.81819665  0.74803762  0.70326238  1
  H  H32  1  0.92331832  0.10530151  0.73464397  1
