# generated using pymatgen
data_Fe4Te16Mo12H
_symmetry_space_group_name_H-M   'P 1'
_cell_length_a   7.22312727
_cell_length_b   7.08682392
_cell_length_c   29.37250900
_cell_angle_alpha   91.57772794
_cell_angle_beta   98.12045943
_cell_angle_gamma   93.99332592
_symmetry_Int_Tables_number   1
_chemical_formula_structural   Fe4Te16Mo12H
_chemical_formula_sum   'Fe4 Te16 Mo12 H1'
_cell_volume   1483.79736813
_cell_formula_units_Z   1
loop_
 _symmetry_equiv_pos_site_id
 _symmetry_equiv_pos_as_xyz
  1  'x, y, z'
loop_
 _atom_site_type_symbol
 _atom_site_label
 _atom_site_symmetry_multiplicity
 _atom_site_fract_x
 _atom_site_fract_y
 _atom_site_fract_z
 _atom_site_occupancy
  Fe  Fe0  1  0.95853472  0.12488023  0.47031724  1
  Fe  Fe1  1  0.83508390  0.11571196  0.67148477  1
  Fe  Fe2  1  0.05693100  0.86054300  0.27656700  1
  Fe  Fe3  1  0.05600012  0.87742814  0.52166291  1
  Mo  Mo4  1  0.24976542  0.55165885  0.34920278  1
  Mo  Mo5  1  0.26174942  0.54352919  0.59810326  1
  Mo  Mo6  1  0.75339607  0.45016376  0.39644545  1
  Mo  Mo7  1  0.77347689  0.44791294  0.64007023  1
  Mo  Mo8  1  0.41735248  0.24939702  0.38232150  1
  Mo  Mo9  1  0.44375564  0.23822115  0.63057620  1
  Mo  Mo10  1  0.57946953  0.75159990  0.36279483  1
  Mo  Mo11  1  0.59614820  0.74919627  0.61011603  1
  Mo  Mo12  1  0.53260700  0.41261200  0.31013000  1
  Mo  Mo13  1  0.54754036  0.41403055  0.55646296  1
  Mo  Mo14  1  0.46694499  0.58718526  0.43636913  1
  Mo  Mo15  1  0.48455815  0.56529436  0.67912654  1
  Te  Te16  1  0.13409900  0.38187892  0.42771273  1
  Te  Te17  1  0.14791671  0.35573304  0.67736762  1
  Te  Te18  1  0.86624900  0.61870000  0.31855000  1
  Te  Te19  1  0.88348115  0.62205061  0.56473491  1
  Te  Te20  1  0.73106900  0.11857500  0.34560400  1
  Te  Te21  1  0.74284377  0.10806700  0.58365086  1
  Te  Te22  1  0.26948885  0.88166070  0.40105782  1
  Te  Te23  1  0.29082853  0.87154100  0.65213957  1
  Te  Te24  1  0.38690600  0.74931100  0.27459600  1
  Te  Te25  1  0.38730852  0.74449749  0.52314881  1
  Te  Te26  1  0.62087370  0.25145390  0.46959632  1
  Te  Te27  1  0.64441192  0.27615113  0.72858106  1
  Te  Te28  1  0.18432800  0.21398100  0.29715900  1
  Te  Te29  1  0.20508620  0.21504660  0.54557455  1
  Te  Te30  1  0.81152612  0.78253013  0.44853196  1
  Te  Te31  1  0.82532509  0.76772613  0.69924815  1
  H  H32  1  0.47160844  0.10271295  0.73495525  1
