# generated using pymatgen
data_Fe2Mo6Se8N
_symmetry_space_group_name_H-M   'P 1'
_cell_length_a   6.73059675
_cell_length_b   6.68252955
_cell_length_c   28.41042900
_cell_angle_alpha   94.71078376
_cell_angle_beta   91.18717718
_cell_angle_gamma   96.76332947
_symmetry_Int_Tables_number   1
_chemical_formula_structural   Fe2Mo6Se8N
_chemical_formula_sum   'Fe4 Mo12 Se16 N2'
_cell_volume   1264.05235895
_cell_formula_units_Z   2
loop_
 _symmetry_equiv_pos_site_id
 _symmetry_equiv_pos_as_xyz
  1  'x, y, z'
loop_
 _atom_site_type_symbol
 _atom_site_label
 _atom_site_symmetry_multiplicity
 _atom_site_fract_x
 _atom_site_fract_y
 _atom_site_fract_z
 _atom_site_occupancy
  Fe  Fe0  1  0.92635973  0.15010513  0.47975178  1
  Fe  Fe1  1  0.83201858  0.09798439  0.64916974  1
  Fe  Fe2  1  0.08366100  0.85003700  0.25310200  1
  Fe  Fe3  1  0.09613998  0.85350291  0.48463079  1
  Mo  Mo4  1  0.23147785  0.53759145  0.34784849  1
  Mo  Mo5  1  0.23355218  0.53379827  0.58657361  1
  Mo  Mo6  1  0.76869224  0.46112606  0.38769408  1
  Mo  Mo7  1  0.76839572  0.45301045  0.62408534  1
  Mo  Mo8  1  0.41102052  0.22898868  0.37754429  1
  Mo  Mo9  1  0.41016045  0.21916933  0.61568263  1
  Mo  Mo10  1  0.59130266  0.77367743  0.35827908  1
  Mo  Mo11  1  0.59223861  0.76702358  0.59610943  1
  Mo  Mo12  1  0.54876300  0.41297700  0.30450800  1
  Mo  Mo13  1  0.54955880  0.41202129  0.54145727  1
  Mo  Mo14  1  0.45080575  0.58812979  0.43224417  1
  Mo  Mo15  1  0.45211531  0.57776091  0.66957163  1
  Se  Se16  1  0.11650662  0.36357937  0.42380590  1
  Se  Se17  1  0.11597381  0.35452589  0.66159888  1
  Se  Se18  1  0.88453700  0.63734700  0.31138600  1
  Se  Se19  1  0.88695400  0.63753318  0.54959344  1
  Se  Se20  1  0.73378251  0.13590347  0.33451211  1
  Se  Se21  1  0.73311231  0.12060277  0.56738411  1
  Se  Se22  1  0.26076563  0.86646578  0.39983672  1
  Se  Se23  1  0.27124941  0.85886941  0.63991902  1
  Se  Se24  1  0.39326800  0.73478000  0.28166600  1
  Se  Se25  1  0.39027965  0.72886634  0.51948066  1
  Se  Se26  1  0.60795666  0.26582115  0.45474917  1
  Se  Se27  1  0.60143313  0.26740163  0.69639862  1
  Se  Se28  1  0.21444700  0.18780600  0.29890600  1
  Se  Se29  1  0.21371255  0.18814412  0.53615443  1
  Se  Se30  1  0.78540069  0.81110693  0.43755651  1
  Se  Se31  1  0.79905783  0.77603778  0.67889385  1
  N  N32  1  0.42091019  0.64256361  0.74421255  1
  N  N33  1  0.41732379  0.65748133  0.78371419  1
