# generated using pymatgen
data_Ag27CO2
_symmetry_space_group_name_H-M   'P 1'
_cell_length_a   8.60517300
_cell_length_b   8.60496305
_cell_length_c   24.34014600
_cell_angle_alpha   89.99904118
_cell_angle_beta   89.99896131
_cell_angle_gamma   90.00613242
_symmetry_Int_Tables_number   1
_chemical_formula_structural   Ag27CO2
_chemical_formula_sum   'Ag27 C1 O2'
_cell_volume   1802.31954385
_cell_formula_units_Z   1
loop_
 _symmetry_equiv_pos_site_id
 _symmetry_equiv_pos_as_xyz
  1  'x, y, z'
loop_
 _atom_site_type_symbol
 _atom_site_label
 _atom_site_symmetry_multiplicity
 _atom_site_fract_x
 _atom_site_fract_y
 _atom_site_fract_z
 _atom_site_occupancy
  Ag  Ag0  1  0.33333300  0.00000000  0.45833300  1
  Ag  Ag1  1  0.33333300  0.33333300  0.45833300  1
  Ag  Ag2  1  0.33333300  0.66666700  0.45833300  1
  Ag  Ag3  1  0.66666700  0.00000000  0.45833300  1
  Ag  Ag4  1  0.66666700  0.33333300  0.45833300  1
  Ag  Ag5  1  0.66666700  0.66666700  0.45833300  1
  Ag  Ag6  1  0.00000000  0.00000000  0.45833300  1
  Ag  Ag7  1  0.00000000  0.33333300  0.45833300  1
  Ag  Ag8  1  0.00000000  0.66666700  0.45833300  1
  Ag  Ag9  1  0.33733525  0.00180834  0.62788242  1
  Ag  Ag10  1  0.33562876  0.33578088  0.62116167  1
  Ag  Ag11  1  0.33792158  0.66964863  0.62796637  1
  Ag  Ag12  1  0.67059176  0.00286140  0.62908810  1
  Ag  Ag13  1  0.66852385  0.33642621  0.62832676  1
  Ag  Ag14  1  0.67117939  0.66996593  0.62911498  1
  Ag  Ag15  1  0.00400000  0.00299814  0.62909178  1
  Ag  Ag16  1  0.00257130  0.33656220  0.62831476  1
  Ag  Ag17  1  0.00461998  0.67010821  0.62911835  1
  Ag  Ag18  1  0.16619218  0.16635881  0.54226290  1
  Ag  Ag19  1  0.16624887  0.50374724  0.54226193  1
  Ag  Ag20  1  0.16885579  0.83508346  0.54349673  1
  Ag  Ag21  1  0.50408314  0.16625305  0.54226413  1
  Ag  Ag22  1  0.50427524  0.50371610  0.54226047  1
  Ag  Ag23  1  0.50325037  0.83501495  0.54347775  1
  Ag  Ag24  1  0.83520831  0.16833234  0.54360132  1
  Ag  Ag25  1  0.83533706  0.50224955  0.54361056  1
  Ag  Ag26  1  0.83607887  0.83530272  0.54369129  1
  C  C27  1  0.33309103  0.33323162  0.74104689  1
  O  O28  1  0.33298030  0.46967970  0.74108184  1
  O  O29  1  0.33321079  0.19694594  0.74080571  1
