# generated using pymatgen
data_Ag27N2
_symmetry_space_group_name_H-M   'P 1'
_cell_length_a   8.60517300
_cell_length_b   8.60496305
_cell_length_c   24.34014600
_cell_angle_alpha   89.99904118
_cell_angle_beta   89.99896131
_cell_angle_gamma   90.00613242
_symmetry_Int_Tables_number   1
_chemical_formula_structural   Ag27N2
_chemical_formula_sum   'Ag27 N2'
_cell_volume   1802.31954385
_cell_formula_units_Z   1
loop_
 _symmetry_equiv_pos_site_id
 _symmetry_equiv_pos_as_xyz
  1  'x, y, z'
loop_
 _atom_site_type_symbol
 _atom_site_label
 _atom_site_symmetry_multiplicity
 _atom_site_fract_x
 _atom_site_fract_y
 _atom_site_fract_z
 _atom_site_occupancy
  Ag  Ag0  1  0.33333300  0.00000000  0.45833300  1
  Ag  Ag1  1  0.33333300  0.33333300  0.45833300  1
  Ag  Ag2  1  0.33333300  0.66666700  0.45833300  1
  Ag  Ag3  1  0.66666700  0.00000000  0.45833300  1
  Ag  Ag4  1  0.66666700  0.33333300  0.45833300  1
  Ag  Ag5  1  0.66666700  0.66666700  0.45833300  1
  Ag  Ag6  1  0.00000000  0.00000000  0.45833300  1
  Ag  Ag7  1  0.00000000  0.33333300  0.45833300  1
  Ag  Ag8  1  0.00000000  0.66666700  0.45833300  1
  Ag  Ag9  1  0.33334797  0.99795066  0.62835740  1
  Ag  Ag10  1  0.33337545  0.33337610  0.62613129  1
  Ag  Ag11  1  0.33334756  0.66881462  0.62833881  1
  Ag  Ag12  1  0.66660971  0.99998911  0.62917586  1
  Ag  Ag13  1  0.66881466  0.33334839  0.62833883  1
  Ag  Ag14  1  0.66660904  0.66660969  0.62916181  1
  Ag  Ag15  1  0.99999081  0.99999126  0.62918093  1
  Ag  Ag16  1  0.99794920  0.33334844  0.62835757  1
  Ag  Ag17  1  0.99998851  0.66661039  0.62917583  1
  Ag  Ag18  1  0.16599403  0.16599455  0.54326883  1
  Ag  Ag19  1  0.16599454  0.50063104  0.54326478  1
  Ag  Ag20  1  0.16574066  0.83335620  0.54324726  1
  Ag  Ag21  1  0.50063107  0.16599519  0.54326479  1
  Ag  Ag22  1  0.50062782  0.50062791  0.54325703  1
  Ag  Ag23  1  0.50085344  0.83335835  0.54323763  1
  Ag  Ag24  1  0.83335583  0.16574099  0.54324728  1
  Ag  Ag25  1  0.83335810  0.50085351  0.54323764  1
  Ag  Ag26  1  0.83333960  0.83333996  0.54370097  1
  N  N27  1  0.33342224  0.33342332  0.72716785  1
  N  N28  1  0.33300458  0.33300456  0.77270791  1
