# generated using pymatgen
data_Ag27CO
_symmetry_space_group_name_H-M   'P 1'
_cell_length_a   8.60517300
_cell_length_b   8.60496305
_cell_length_c   24.34014600
_cell_angle_alpha   89.99904118
_cell_angle_beta   89.99896131
_cell_angle_gamma   90.00613242
_symmetry_Int_Tables_number   1
_chemical_formula_structural   Ag27CO
_chemical_formula_sum   'Ag27 C1 O1'
_cell_volume   1802.31954385
_cell_formula_units_Z   1
loop_
 _symmetry_equiv_pos_site_id
 _symmetry_equiv_pos_as_xyz
  1  'x, y, z'
loop_
 _atom_site_type_symbol
 _atom_site_label
 _atom_site_symmetry_multiplicity
 _atom_site_fract_x
 _atom_site_fract_y
 _atom_site_fract_z
 _atom_site_occupancy
  Ag  Ag0  1  0.33333300  0.00000000  0.45833300  1
  Ag  Ag1  1  0.33333300  0.33333300  0.45833300  1
  Ag  Ag2  1  0.33333300  0.66666700  0.45833300  1
  Ag  Ag3  1  0.66666700  0.00000000  0.45833300  1
  Ag  Ag4  1  0.66666700  0.33333300  0.45833300  1
  Ag  Ag5  1  0.66666700  0.66666700  0.45833300  1
  Ag  Ag6  1  0.00000000  0.00000000  0.45833300  1
  Ag  Ag7  1  0.00000000  0.33333300  0.45833300  1
  Ag  Ag8  1  0.00000000  0.66666700  0.45833300  1
  Ag  Ag9  1  0.33334251  0.99738449  0.62796284  1
  Ag  Ag10  1  0.33392617  0.33393023  0.62881141  1
  Ag  Ag11  1  0.33332841  0.67008779  0.62791906  1
  Ag  Ag12  1  0.66646191  0.00015778  0.62785269  1
  Ag  Ag13  1  0.67008578  0.33332823  0.62791917  1
  Ag  Ag14  1  0.66649790  0.66649873  0.62779623  1
  Ag  Ag15  1  0.00019766  0.00019825  0.62788900  1
  Ag  Ag16  1  0.99738136  0.33334251  0.62796286  1
  Ag  Ag17  1  0.00015745  0.66646260  0.62785252  1
  Ag  Ag18  1  0.16749864  0.16749901  0.54316880  1
  Ag  Ag19  1  0.16749013  0.49931456  0.54314516  1
  Ag  Ag20  1  0.16619644  0.83344948  0.54284154  1
  Ag  Ag21  1  0.49931376  0.16749079  0.54314520  1
  Ag  Ag22  1  0.49932343  0.49932403  0.54311869  1
  Ag  Ag23  1  0.50038473  0.83345342  0.54284105  1
  Ag  Ag24  1  0.83344878  0.16619679  0.54284158  1
  Ag  Ag25  1  0.83345263  0.50038434  0.54284099  1
  Ag  Ag26  1  0.83339723  0.83339746  0.54297236  1
  O  O27  1  0.32069905  0.32062116  0.76207664  1
  C  C28  1  0.32874784  0.32871712  0.71523882  1
