# generated using pymatgen
data_Ag27HCO
_symmetry_space_group_name_H-M   'P 1'
_cell_length_a   8.60517300
_cell_length_b   8.60496305
_cell_length_c   24.34014600
_cell_angle_alpha   89.99904118
_cell_angle_beta   89.99896131
_cell_angle_gamma   90.00613242
_symmetry_Int_Tables_number   1
_chemical_formula_structural   Ag27HCO
_chemical_formula_sum   'Ag27 H1 C1 O1'
_cell_volume   1802.31954385
_cell_formula_units_Z   1
loop_
 _symmetry_equiv_pos_site_id
 _symmetry_equiv_pos_as_xyz
  1  'x, y, z'
loop_
 _atom_site_type_symbol
 _atom_site_label
 _atom_site_symmetry_multiplicity
 _atom_site_fract_x
 _atom_site_fract_y
 _atom_site_fract_z
 _atom_site_occupancy
  Ag  Ag0  1  0.33333300  0.00000000  0.45833300  1
  Ag  Ag1  1  0.33333300  0.33333300  0.45833300  1
  Ag  Ag2  1  0.33333300  0.66666700  0.45833300  1
  Ag  Ag3  1  0.66666700  0.00000000  0.45833300  1
  Ag  Ag4  1  0.66666700  0.33333300  0.45833300  1
  Ag  Ag5  1  0.66666700  0.66666700  0.45833300  1
  Ag  Ag6  1  0.00000000  0.00000000  0.45833300  1
  Ag  Ag7  1  0.00000000  0.33333300  0.45833300  1
  Ag  Ag8  1  0.00000000  0.66666700  0.45833300  1
  Ag  Ag9  1  0.33337089  0.99878005  0.62895368  1
  Ag  Ag10  1  0.32211036  0.33109829  0.63081811  1
  Ag  Ag11  1  0.33182579  0.66570024  0.62861718  1
  Ag  Ag12  1  0.66759426  0.99958640  0.62830185  1
  Ag  Ag13  1  0.66741578  0.33402653  0.62876268  1
  Ag  Ag14  1  0.66731201  0.66835357  0.62802133  1
  Ag  Ag15  1  0.99980324  0.00027003  0.62833992  1
  Ag  Ag16  1  0.99462821  0.33366078  0.62849239  1
  Ag  Ag17  1  0.99904688  0.66674718  0.62837523  1
  Ag  Ag18  1  0.16667576  0.16751472  0.54292774  1
  Ag  Ag19  1  0.16626509  0.49857616  0.54296573  1
  Ag  Ag20  1  0.16705944  0.83329508  0.54353238  1
  Ag  Ag21  1  0.49810041  0.16795572  0.54364504  1
  Ag  Ag22  1  0.49799738  0.49857139  0.54349316  1
  Ag  Ag23  1  0.49897234  0.83324922  0.54353455  1
  Ag  Ag24  1  0.83201969  0.16709997  0.54337200  1
  Ag  Ag25  1  0.83205116  0.49977614  0.54319418  1
  Ag  Ag26  1  0.83387024  0.83377310  0.54281305  1
  C  C27  1  0.38426754  0.34980748  0.71600335  1
  H  H28  1  0.29106473  0.32999045  0.74708099  1
  O  O29  1  0.51629862  0.37857197  0.73037315  1
