# generated using pymatgen
data_Ag27HN2
_symmetry_space_group_name_H-M   'P 1'
_cell_length_a   8.60517300
_cell_length_b   8.60496305
_cell_length_c   24.34014600
_cell_angle_alpha   89.99904118
_cell_angle_beta   89.99896131
_cell_angle_gamma   90.00613242
_symmetry_Int_Tables_number   1
_chemical_formula_structural   Ag27HN2
_chemical_formula_sum   'Ag27 H1 N2'
_cell_volume   1802.31954385
_cell_formula_units_Z   1
loop_
 _symmetry_equiv_pos_site_id
 _symmetry_equiv_pos_as_xyz
  1  'x, y, z'
loop_
 _atom_site_type_symbol
 _atom_site_label
 _atom_site_symmetry_multiplicity
 _atom_site_fract_x
 _atom_site_fract_y
 _atom_site_fract_z
 _atom_site_occupancy
  Ag  Ag0  1  0.33333300  0.00000000  0.45833300  1
  Ag  Ag1  1  0.33333300  0.33333300  0.45833300  1
  Ag  Ag2  1  0.33333300  0.66666700  0.45833300  1
  Ag  Ag3  1  0.66666700  0.00000000  0.45833300  1
  Ag  Ag4  1  0.66666700  0.33333300  0.45833300  1
  Ag  Ag5  1  0.66666700  0.66666700  0.45833300  1
  Ag  Ag6  1  0.00000000  0.00000000  0.45833300  1
  Ag  Ag7  1  0.00000000  0.33333300  0.45833300  1
  Ag  Ag8  1  0.00000000  0.66666700  0.45833300  1
  Ag  Ag9  1  0.33295992  0.99787734  0.62858996  1
  Ag  Ag10  1  0.32790387  0.33340901  0.62919396  1
  Ag  Ag11  1  0.33295979  0.66898784  0.62857026  1
  Ag  Ag12  1  0.66679792  0.99993835  0.62895116  1
  Ag  Ag13  1  0.66797989  0.33334891  0.62902861  1
  Ag  Ag14  1  0.66680347  0.66667800  0.62893775  1
  Ag  Ag15  1  0.00003400  0.99997173  0.62901025  1
  Ag  Ag16  1  0.99691315  0.33335354  0.62903891  1
  Ag  Ag17  1  0.00003557  0.66664436  0.62900784  1
  Ag  Ag18  1  0.16678773  0.16698070  0.54373160  1
  Ag  Ag19  1  0.16678983  0.49970116  0.54372382  1
  Ag  Ag20  1  0.16580167  0.83337655  0.54336845  1
  Ag  Ag21  1  0.49929452  0.16737516  0.54400441  1
  Ag  Ag22  1  0.49929023  0.49932133  0.54399513  1
  Ag  Ag23  1  0.50069663  0.83338156  0.54345967  1
  Ag  Ag24  1  0.83308210  0.16624268  0.54358218  1
  Ag  Ag25  1  0.83308298  0.50036757  0.54357141  1
  Ag  Ag26  1  0.83336797  0.83334206  0.54369476  1
  N  N27  1  0.35707162  0.33357937  0.71965135  1
  N  N28  1  0.32152758  0.33281104  0.76670447  1
  H  H29  1  0.41192471  0.33334960  0.79624914  1
