# generated using pymatgen
data_Ag27HCO
_symmetry_space_group_name_H-M   'P 1'
_cell_length_a   8.60496519
_cell_length_b   8.60496881
_cell_length_c   23.47925300
_cell_angle_alpha   90.00483404
_cell_angle_beta   93.49762144
_cell_angle_gamma   119.99565775
_symmetry_Int_Tables_number   1
_chemical_formula_structural   Ag27HCO
_chemical_formula_sum   'Ag27 H1 C1 O1'
_cell_volume   1501.93330901
_cell_formula_units_Z   1
loop_
 _symmetry_equiv_pos_site_id
 _symmetry_equiv_pos_as_xyz
  1  'x, y, z'
loop_
 _atom_site_type_symbol
 _atom_site_label
 _atom_site_symmetry_multiplicity
 _atom_site_fract_x
 _atom_site_fract_y
 _atom_site_fract_z
 _atom_site_occupancy
  Ag  Ag0  1  0.20000000  0.26666700  0.40000000  1
  Ag  Ag1  1  0.20000000  0.60000000  0.40000000  1
  Ag  Ag2  1  0.20000000  0.93333300  0.40000000  1
  Ag  Ag3  1  0.53333300  0.26666700  0.40000000  1
  Ag  Ag4  1  0.53333300  0.60000000  0.40000000  1
  Ag  Ag5  1  0.53333300  0.93333300  0.40000000  1
  Ag  Ag6  1  0.86666700  0.26666700  0.40000000  1
  Ag  Ag7  1  0.86666700  0.60000000  0.40000000  1
  Ag  Ag8  1  0.86666700  0.93333300  0.40000000  1
  Ag  Ag9  1  0.33378654  0.16835949  0.50256760  1
  Ag  Ag10  1  0.33405205  0.49910869  0.50269073  1
  Ag  Ag11  1  0.33286777  0.83338672  0.50192516  1
  Ag  Ag12  1  0.66605377  0.16670479  0.50204278  1
  Ag  Ag13  1  0.66555095  0.49973628  0.50196741  1
  Ag  Ag14  1  0.66591761  0.83332362  0.50188823  1
  Ag  Ag15  1  0.99972158  0.16675976  0.50218492  1
  Ag  Ag16  1  0.00027268  0.50080872  0.50151509  1
  Ag  Ag17  1  0.00012566  0.83336033  0.50166972  1
  Ag  Ag18  1  0.13139132  0.06535576  0.60379364  1
  Ag  Ag19  1  0.13160231  0.40028195  0.60365365  1
  Ag  Ag20  1  0.13344628  0.73396403  0.60406352  1
  Ag  Ag21  1  0.46623787  0.06588668  0.60406717  1
  Ag  Ag22  1  0.46824396  0.40098467  0.60560098  1
  Ag  Ag23  1  0.46662183  0.73475802  0.60419830  1
  Ag  Ag24  1  0.79962282  0.06693804  0.60453965  1
  Ag  Ag25  1  0.80365955  0.40001177  0.60240745  1
  Ag  Ag26  1  0.80189667  0.73696353  0.60264477  1
  C  C27  1  0.52895122  0.42162488  0.69609092  1
  H  H28  1  0.40957971  0.37962834  0.72202765  1
  O  O29  1  0.67551887  0.47324808  0.72210248  1
