# generated using pymatgen
data_Ag27HO2
_symmetry_space_group_name_H-M   'P 1'
_cell_length_a   8.60517300
_cell_length_b   8.60496305
_cell_length_c   24.34014600
_cell_angle_alpha   89.99904118
_cell_angle_beta   89.99896131
_cell_angle_gamma   90.00613242
_symmetry_Int_Tables_number   1
_chemical_formula_structural   Ag27HO2
_chemical_formula_sum   'Ag27 H1 O2'
_cell_volume   1802.31954385
_cell_formula_units_Z   1
loop_
 _symmetry_equiv_pos_site_id
 _symmetry_equiv_pos_as_xyz
  1  'x, y, z'
loop_
 _atom_site_type_symbol
 _atom_site_label
 _atom_site_symmetry_multiplicity
 _atom_site_fract_x
 _atom_site_fract_y
 _atom_site_fract_z
 _atom_site_occupancy
  Ag  Ag0  1  0.33333300  0.00000000  0.45833300  1
  Ag  Ag1  1  0.33333300  0.33333300  0.45833300  1
  Ag  Ag2  1  0.33333300  0.66666700  0.45833300  1
  Ag  Ag3  1  0.66666700  0.00000000  0.45833300  1
  Ag  Ag4  1  0.66666700  0.33333300  0.45833300  1
  Ag  Ag5  1  0.66666700  0.66666700  0.45833300  1
  Ag  Ag6  1  0.00000000  0.00000000  0.45833300  1
  Ag  Ag7  1  0.00000000  0.33333300  0.45833300  1
  Ag  Ag8  1  0.00000000  0.66666700  0.45833300  1
  Ag  Ag9  1  0.33248585  0.00525939  0.62988874  1
  Ag  Ag10  1  0.32349093  0.34125041  0.62920910  1
  Ag  Ag11  1  0.33348276  0.67517714  0.62834888  1
  Ag  Ag12  1  0.66648688  0.99963614  0.62863393  1
  Ag  Ag13  1  0.66009826  0.33448203  0.63046145  1
  Ag  Ag14  1  0.66690798  0.66819998  0.62833476  1
  Ag  Ag15  1  0.99836177  0.99975432  0.62851982  1
  Ag  Ag16  1  0.99056976  0.33338152  0.62891393  1
  Ag  Ag17  1  0.00004002  0.66658112  0.62863154  1
  Ag  Ag18  1  0.16525570  0.16894676  0.54373588  1
  Ag  Ag19  1  0.16627208  0.50000546  0.54371078  1
  Ag  Ag20  1  0.16644188  0.83579371  0.54366933  1
  Ag  Ag21  1  0.49791537  0.16870384  0.54376433  1
  Ag  Ag22  1  0.49797266  0.50094131  0.54363934  1
  Ag  Ag23  1  0.49949318  0.83595989  0.54361744  1
  Ag  Ag24  1  0.83030615  0.16733321  0.54387668  1
  Ag  Ag25  1  0.83080353  0.49967959  0.54378111  1
  Ag  Ag26  1  0.83389086  0.83292447  0.54321166  1
  O  O27  1  0.40058067  0.28482935  0.71208582  1
  O  O28  1  0.29536602  0.37978692  0.74622147  1
  H  H29  1  0.36380010  0.46660441  0.75744003  1
