# generated using pymatgen
data_Ag27O
_symmetry_space_group_name_H-M   'P 1'
_cell_length_a   8.60517300
_cell_length_b   8.60496305
_cell_length_c   24.34014600
_cell_angle_alpha   89.99904118
_cell_angle_beta   89.99896131
_cell_angle_gamma   90.00613242
_symmetry_Int_Tables_number   1
_chemical_formula_structural   Ag27O
_chemical_formula_sum   'Ag27 O1'
_cell_volume   1802.31954385
_cell_formula_units_Z   1
loop_
 _symmetry_equiv_pos_site_id
 _symmetry_equiv_pos_as_xyz
  1  'x, y, z'
loop_
 _atom_site_type_symbol
 _atom_site_label
 _atom_site_symmetry_multiplicity
 _atom_site_fract_x
 _atom_site_fract_y
 _atom_site_fract_z
 _atom_site_occupancy
  Ag  Ag0  1  0.33333300  0.00000000  0.45833300  1
  Ag  Ag1  1  0.33333300  0.33333300  0.45833300  1
  Ag  Ag2  1  0.33333300  0.66666700  0.45833300  1
  Ag  Ag3  1  0.66666700  0.00000000  0.45833300  1
  Ag  Ag4  1  0.66666700  0.33333300  0.45833300  1
  Ag  Ag5  1  0.66666700  0.66666700  0.45833300  1
  Ag  Ag6  1  0.00000000  0.00000000  0.45833300  1
  Ag  Ag7  1  0.00000000  0.33333300  0.45833300  1
  Ag  Ag8  1  0.00000000  0.66666700  0.45833300  1
  Ag  Ag9  1  0.33339031  0.99838474  0.62882813  1
  Ag  Ag10  1  0.33339358  0.33339393  0.63191717  1
  Ag  Ag11  1  0.33338498  0.66853987  0.62867733  1
  Ag  Ag12  1  0.66748808  0.99918912  0.62842493  1
  Ag  Ag13  1  0.66854043  0.33338524  0.62867668  1
  Ag  Ag14  1  0.66750773  0.66750772  0.62840829  1
  Ag  Ag15  1  0.99920724  0.99920819  0.62843427  1
  Ag  Ag16  1  0.99838368  0.33339084  0.62882756  1
  Ag  Ag17  1  0.99918852  0.66748830  0.62842495  1
  Ag  Ag18  1  0.16804569  0.16804539  0.54373625  1
  Ag  Ag19  1  0.16802200  0.49866505  0.54371508  1
  Ag  Ag20  1  0.16682830  0.83341128  0.54380683  1
  Ag  Ag21  1  0.49866434  0.16802163  0.54371506  1
  Ag  Ag22  1  0.49869078  0.49869136  0.54369569  1
  Ag  Ag23  1  0.49982930  0.83341434  0.54379495  1
  Ag  Ag24  1  0.83341107  0.16682815  0.54380645  1
  Ag  Ag25  1  0.83341427  0.49982990  0.54379468  1
  Ag  Ag26  1  0.83337063  0.83337077  0.54315084  1
  O  O27  1  0.33426433  0.33426473  0.71630241  1
