# generated using pymatgen
data_Fe4Te16Mo12HN2
_symmetry_space_group_name_H-M   'P 1'
_cell_length_a   7.22312727
_cell_length_b   7.08682392
_cell_length_c   29.37250900
_cell_angle_alpha   91.57772794
_cell_angle_beta   98.12045943
_cell_angle_gamma   93.99332592
_symmetry_Int_Tables_number   1
_chemical_formula_structural   Fe4Te16Mo12HN2
_chemical_formula_sum   'Fe4 Te16 Mo12 H1 N2'
_cell_volume   1483.79736813
_cell_formula_units_Z   1
loop_
 _symmetry_equiv_pos_site_id
 _symmetry_equiv_pos_as_xyz
  1  'x, y, z'
loop_
 _atom_site_type_symbol
 _atom_site_label
 _atom_site_symmetry_multiplicity
 _atom_site_fract_x
 _atom_site_fract_y
 _atom_site_fract_z
 _atom_site_occupancy
  Fe  Fe0  1  0.94110429  0.13300682  0.46560581  1
  Fe  Fe1  1  0.87808980  0.12360643  0.69366757  1
  Fe  Fe2  1  0.05693100  0.86054300  0.27656700  1
  Fe  Fe3  1  0.04706421  0.86036786  0.52416369  1
  Mo  Mo4  1  0.24916181  0.55192588  0.34839828  1
  Mo  Mo5  1  0.23050693  0.54478470  0.59250774  1
  Mo  Mo6  1  0.75217286  0.45075977  0.39640683  1
  Mo  Mo7  1  0.73360562  0.44066444  0.64054181  1
  Mo  Mo8  1  0.41564332  0.24849824  0.38184947  1
  Mo  Mo9  1  0.40012455  0.24074430  0.62601538  1
  Mo  Mo10  1  0.57870365  0.75195069  0.36266799  1
  Mo  Mo11  1  0.57058434  0.74493726  0.60764195  1
  Mo  Mo12  1  0.53260700  0.41261200  0.31013000  1
  Mo  Mo13  1  0.52274943  0.40596470  0.55358584  1
  Mo  Mo14  1  0.46389741  0.58767775  0.43587629  1
  Mo  Mo15  1  0.45071568  0.57550546  0.67531436  1
  Te  Te16  1  0.13116640  0.38253959  0.42566504  1
  Te  Te17  1  0.11594518  0.38440088  0.67203231  1
  Te  Te18  1  0.86624900  0.61870000  0.31855000  1
  Te  Te19  1  0.85419845  0.61318597  0.56388859  1
  Te  Te20  1  0.73106900  0.11857500  0.34560400  1
  Te  Te21  1  0.72185401  0.10791146  0.59022334  1
  Te  Te22  1  0.26746143  0.88164398  0.40007422  1
  Te  Te23  1  0.25530269  0.87637218  0.64618525  1
  Te  Te24  1  0.38690600  0.74931100  0.27459600  1
  Te  Te25  1  0.37588688  0.74528998  0.52012137  1
  Te  Te26  1  0.61244269  0.24915300  0.46934321  1
  Te  Te27  1  0.57938386  0.25487591  0.71500037  1
  Te  Te28  1  0.18432800  0.21398100  0.29715900  1
  Te  Te29  1  0.17369530  0.21499724  0.53943577  1
  Te  Te30  1  0.81320303  0.77996819  0.44959314  1
  Te  Te31  1  0.79311196  0.75866908  0.69778116  1
  N  N32  1  0.96699802  0.11847891  0.75127901  1
  N  N33  1  0.94652073  0.11686284  0.79108206  1
  H  H34  1  0.06154716  0.10323486  0.81627004  1
