# generated using pymatgen
data_Fe2Te8Mo6N
_symmetry_space_group_name_H-M   'P 1'
_cell_length_a   7.22312727
_cell_length_b   7.08682392
_cell_length_c   29.37250900
_cell_angle_alpha   91.57772794
_cell_angle_beta   98.12045943
_cell_angle_gamma   93.99332592
_symmetry_Int_Tables_number   1
_chemical_formula_structural   Fe2Te8Mo6N
_chemical_formula_sum   'Fe4 Te16 Mo12 N2'
_cell_volume   1483.79736813
_cell_formula_units_Z   2
loop_
 _symmetry_equiv_pos_site_id
 _symmetry_equiv_pos_as_xyz
  1  'x, y, z'
loop_
 _atom_site_type_symbol
 _atom_site_label
 _atom_site_symmetry_multiplicity
 _atom_site_fract_x
 _atom_site_fract_y
 _atom_site_fract_z
 _atom_site_occupancy
  Fe  Fe0  1  0.94077625  0.13832639  0.46593627  1
  Fe  Fe1  1  0.82938114  0.10268044  0.66775810  1
  Fe  Fe2  1  0.05693100  0.86054300  0.27656700  1
  Fe  Fe3  1  0.04635473  0.86604025  0.52209754  1
  Mo  Mo4  1  0.24881965  0.55233339  0.34836168  1
  Mo  Mo5  1  0.23583886  0.54308977  0.59423497  1
  Mo  Mo6  1  0.75198079  0.45129346  0.39632006  1
  Mo  Mo7  1  0.74218595  0.44258656  0.63918369  1
  Mo  Mo8  1  0.41509186  0.24949406  0.38174015  1
  Mo  Mo9  1  0.40976123  0.23535704  0.62625110  1
  Mo  Mo10  1  0.57847622  0.75288825  0.36244348  1
  Mo  Mo11  1  0.57307193  0.74986537  0.60754954  1
  Mo  Mo12  1  0.53260700  0.41261200  0.31013000  1
  Mo  Mo13  1  0.52374165  0.41390957  0.55328204  1
  Mo  Mo14  1  0.46386079  0.58948609  0.43579727  1
  Mo  Mo15  1  0.45649728  0.56932520  0.67507131  1
  Te  Te16  1  0.13132044  0.38394336  0.42584391  1
  Te  Te17  1  0.12045738  0.36105208  0.67374480  1
  Te  Te18  1  0.86624900  0.61870000  0.31855000  1
  Te  Te19  1  0.85932159  0.62020526  0.56385123  1
  Te  Te20  1  0.73106900  0.11857500  0.34560400  1
  Te  Te21  1  0.71596436  0.10726515  0.58132587  1
  Te  Te22  1  0.26694216  0.88259782  0.39978312  1
  Te  Te23  1  0.26151648  0.87232406  0.64785100  1
  Te  Te24  1  0.38690600  0.74931100  0.27459600  1
  Te  Te25  1  0.37267305  0.74641335  0.52002216  1
  Te  Te26  1  0.61103643  0.25246581  0.46872880  1
  Te  Te27  1  0.60342123  0.25804831  0.71573462  1
  Te  Te28  1  0.18432800  0.21398100  0.29715900  1
  Te  Te29  1  0.17764977  0.21583195  0.54062863  1
  Te  Te30  1  0.81161161  0.78399411  0.44853527  1
  Te  Te31  1  0.80005600  0.76162976  0.69768282  1
  N  N32  1  0.03105165  0.11264720  0.77767836  1
  N  N33  1  0.95704238  0.09816702  0.80809885  1
