# generated using pymatgen
data_Fe4Te16Mo12H3N
_symmetry_space_group_name_H-M   'P 1'
_cell_length_a   7.22312727
_cell_length_b   7.08682392
_cell_length_c   29.37250900
_cell_angle_alpha   91.57772794
_cell_angle_beta   98.12045943
_cell_angle_gamma   93.99332592
_symmetry_Int_Tables_number   1
_chemical_formula_structural   Fe4Te16Mo12H3N
_chemical_formula_sum   'Fe4 Te16 Mo12 H3 N1'
_cell_volume   1483.79736813
_cell_formula_units_Z   1
loop_
 _symmetry_equiv_pos_site_id
 _symmetry_equiv_pos_as_xyz
  1  'x, y, z'
loop_
 _atom_site_type_symbol
 _atom_site_label
 _atom_site_symmetry_multiplicity
 _atom_site_fract_x
 _atom_site_fract_y
 _atom_site_fract_z
 _atom_site_occupancy
  Fe  Fe0  1  0.93422761  0.12669646  0.46246859  1
  Fe  Fe1  1  0.83779082  0.10685971  0.68412666  1
  Fe  Fe2  1  0.05693100  0.86054300  0.27656700  1
  Fe  Fe3  1  0.03908118  0.85919805  0.52557283  1
  Mo  Mo4  1  0.24811871  0.55146482  0.34820671  1
  Mo  Mo5  1  0.21844556  0.53915707  0.59200322  1
  Mo  Mo6  1  0.74965276  0.44979284  0.39650490  1
  Mo  Mo7  1  0.71680727  0.43124960  0.64065340  1
  Mo  Mo8  1  0.41394667  0.24737755  0.38165928  1
  Mo  Mo9  1  0.38635102  0.23049335  0.62523708  1
  Mo  Mo10  1  0.57758971  0.75145435  0.36280604  1
  Mo  Mo11  1  0.55760590  0.74098805  0.60795319  1
  Mo  Mo12  1  0.53260700  0.41261200  0.31013000  1
  Mo  Mo13  1  0.51234504  0.40233099  0.55331705  1
  Mo  Mo14  1  0.46046656  0.58579661  0.43570472  1
  Mo  Mo15  1  0.43213259  0.56459373  0.67464975  1
  Te  Te16  1  0.12844872  0.38087481  0.42490542  1
  Te  Te17  1  0.09849343  0.36905901  0.67008678  1
  Te  Te18  1  0.86624900  0.61870000  0.31855000  1
  Te  Te19  1  0.84278658  0.61140409  0.56488498  1
  Te  Te20  1  0.73106900  0.11857500  0.34560400  1
  Te  Te21  1  0.70761441  0.09994213  0.58798690  1
  Te  Te22  1  0.26570467  0.88092369  0.40002511  1
  Te  Te23  1  0.24005548  0.86835460  0.64616356  1
  Te  Te24  1  0.38690600  0.74931100  0.27459600  1
  Te  Te25  1  0.36445711  0.74021365  0.51991292  1
  Te  Te26  1  0.60861352  0.24741951  0.46912328  1
  Te  Te27  1  0.55909126  0.24969131  0.71610479  1
  Te  Te28  1  0.18432800  0.21398100  0.29715900  1
  Te  Te29  1  0.16311273  0.21325153  0.53794083  1
  Te  Te30  1  0.81028978  0.77430518  0.45054300  1
  Te  Te31  1  0.77563020  0.74579131  0.69841615  1
  N  N32  1  0.98445881  0.11791768  0.75666376  1
  H  H33  1  0.12372305  0.09058322  0.76103218  1
  H  H34  1  0.97769361  0.24803638  0.77258471  1
  H  H35  1  0.92008787  0.02146147  0.77627967  1
