# generated using pymatgen
data_Ag27H
_symmetry_space_group_name_H-M   'P 1'
_cell_length_a   8.60517300
_cell_length_b   8.60496305
_cell_length_c   24.34014600
_cell_angle_alpha   89.99904118
_cell_angle_beta   89.99896131
_cell_angle_gamma   90.00613242
_symmetry_Int_Tables_number   1
_chemical_formula_structural   Ag27H
_chemical_formula_sum   'Ag27 H1'
_cell_volume   1802.31954385
_cell_formula_units_Z   1
loop_
 _symmetry_equiv_pos_site_id
 _symmetry_equiv_pos_as_xyz
  1  'x, y, z'
loop_
 _atom_site_type_symbol
 _atom_site_label
 _atom_site_symmetry_multiplicity
 _atom_site_fract_x
 _atom_site_fract_y
 _atom_site_fract_z
 _atom_site_occupancy
  Ag  Ag0  1  0.33333300  0.00000000  0.45833300  1
  Ag  Ag1  1  0.33333300  0.33333300  0.45833300  1
  Ag  Ag2  1  0.33333300  0.66666700  0.45833300  1
  Ag  Ag3  1  0.66666700  0.00000000  0.45833300  1
  Ag  Ag4  1  0.66666700  0.33333300  0.45833300  1
  Ag  Ag5  1  0.66666700  0.66666700  0.45833300  1
  Ag  Ag6  1  0.00000000  0.00000000  0.45833300  1
  Ag  Ag7  1  0.00000000  0.33333300  0.45833300  1
  Ag  Ag8  1  0.00000000  0.66666700  0.45833300  1
  Ag  Ag9  1  0.33340428  0.00015459  0.62987840  1
  Ag  Ag10  1  0.33337824  0.33337877  0.63027500  1
  Ag  Ag11  1  0.33340160  0.66651422  0.62986955  1
  Ag  Ag12  1  0.66712343  0.99960043  0.62861003  1
  Ag  Ag13  1  0.66651378  0.33340194  0.62986921  1
  Ag  Ag14  1  0.66712308  0.66712342  0.62859399  1
  Ag  Ag15  1  0.99959854  0.99959936  0.62861658  1
  Ag  Ag16  1  0.00015374  0.33340479  0.62987799  1
  Ag  Ag17  1  0.99959982  0.66712381  0.62861003  1
  Ag  Ag18  1  0.16740401  0.16740399  0.54338321  1
  Ag  Ag19  1  0.16740762  0.49929610  0.54337349  1
  Ag  Ag20  1  0.16768878  0.83337984  0.54418855  1
  Ag  Ag21  1  0.49929566  0.16740771  0.54337348  1
  Ag  Ag22  1  0.49929378  0.49929433  0.54336445  1
  Ag  Ag23  1  0.49905201  0.83338388  0.54417849  1
  Ag  Ag24  1  0.83337955  0.16768875  0.54418844  1
  Ag  Ag25  1  0.83338349  0.49905257  0.54417839  1
  Ag  Ag26  1  0.83339971  0.83339988  0.54317150  1
  H  H27  1  0.33329993  0.33329950  0.69839243  1
