# generated using pymatgen
data_Ag27CO
_symmetry_space_group_name_H-M   'P 1'
_cell_length_a   8.60496519
_cell_length_b   8.60496881
_cell_length_c   23.47925300
_cell_angle_alpha   90.00483404
_cell_angle_beta   93.49762144
_cell_angle_gamma   119.99565775
_symmetry_Int_Tables_number   1
_chemical_formula_structural   Ag27CO
_chemical_formula_sum   'Ag27 C1 O1'
_cell_volume   1501.93330901
_cell_formula_units_Z   1
loop_
 _symmetry_equiv_pos_site_id
 _symmetry_equiv_pos_as_xyz
  1  'x, y, z'
loop_
 _atom_site_type_symbol
 _atom_site_label
 _atom_site_symmetry_multiplicity
 _atom_site_fract_x
 _atom_site_fract_y
 _atom_site_fract_z
 _atom_site_occupancy
  Ag  Ag0  1  0.20000000  0.26666700  0.40000000  1
  Ag  Ag1  1  0.20000000  0.60000000  0.40000000  1
  Ag  Ag2  1  0.20000000  0.93333300  0.40000000  1
  Ag  Ag3  1  0.53333300  0.26666700  0.40000000  1
  Ag  Ag4  1  0.53333300  0.60000000  0.40000000  1
  Ag  Ag5  1  0.53333300  0.93333300  0.40000000  1
  Ag  Ag6  1  0.86666700  0.26666700  0.40000000  1
  Ag  Ag7  1  0.86666700  0.60000000  0.40000000  1
  Ag  Ag8  1  0.86666700  0.93333300  0.40000000  1
  Ag  Ag9  1  0.33442314  0.16802332  0.50279215  1
  Ag  Ag10  1  0.33443270  0.49977836  0.50278610  1
  Ag  Ag11  1  0.33318827  0.83329023  0.50183821  1
  Ag  Ag12  1  0.66746444  0.16674072  0.50254778  1
  Ag  Ag13  1  0.66602541  0.49971373  0.50295498  1
  Ag  Ag14  1  0.66748149  0.83408995  0.50255291  1
  Ag  Ag15  1  0.00015784  0.16675012  0.50253537  1
  Ag  Ag16  1  0.00062350  0.50079699  0.50180895  1
  Ag  Ag17  1  0.00064805  0.83318601  0.50179165  1
  Ag  Ag18  1  0.13103720  0.06399374  0.60398508  1
  Ag  Ag19  1  0.13097214  0.40041537  0.60398988  1
  Ag  Ag20  1  0.13447210  0.73393646  0.60526356  1
  Ag  Ag21  1  0.46778439  0.06443101  0.60414987  1
  Ag  Ag22  1  0.46802001  0.40084829  0.60405803  1
  Ag  Ag23  1  0.46777271  0.73690466  0.60412387  1
  Ag  Ag24  1  0.80126168  0.06730718  0.60571934  1
  Ag  Ag25  1  0.80350664  0.40038155  0.60427957  1
  Ag  Ag26  1  0.80361020  0.73659069  0.60426135  1
  O  O27  1  0.45796907  0.39111316  0.74298346  1
  C  C28  1  0.46649272  0.39823102  0.69429264  1
