# generated using pymatgen
data_Ag27H
_symmetry_space_group_name_H-M   'P 1'
_cell_length_a   8.60496519
_cell_length_b   8.60496881
_cell_length_c   23.47925300
_cell_angle_alpha   90.00483404
_cell_angle_beta   93.49762144
_cell_angle_gamma   119.99565775
_symmetry_Int_Tables_number   1
_chemical_formula_structural   Ag27H
_chemical_formula_sum   'Ag27 H1'
_cell_volume   1501.93330901
_cell_formula_units_Z   1
loop_
 _symmetry_equiv_pos_site_id
 _symmetry_equiv_pos_as_xyz
  1  'x, y, z'
loop_
 _atom_site_type_symbol
 _atom_site_label
 _atom_site_symmetry_multiplicity
 _atom_site_fract_x
 _atom_site_fract_y
 _atom_site_fract_z
 _atom_site_occupancy
  Ag  Ag0  1  0.20000000  0.26666700  0.40000000  1
  Ag  Ag1  1  0.20000000  0.60000000  0.40000000  1
  Ag  Ag2  1  0.20000000  0.93333300  0.40000000  1
  Ag  Ag3  1  0.53333300  0.26666700  0.40000000  1
  Ag  Ag4  1  0.53333300  0.60000000  0.40000000  1
  Ag  Ag5  1  0.53333300  0.93333300  0.40000000  1
  Ag  Ag6  1  0.86666700  0.26666700  0.40000000  1
  Ag  Ag7  1  0.86666700  0.60000000  0.40000000  1
  Ag  Ag8  1  0.86666700  0.93333300  0.40000000  1
  Ag  Ag9  1  0.33612915  0.16753233  0.50166075  1
  Ag  Ag10  1  0.33612991  0.50187757  0.50165917  1
  Ag  Ag11  1  0.33613602  0.83472079  0.50239299  1
  Ag  Ag12  1  0.66934320  0.16800197  0.50237689  1
  Ag  Ag13  1  0.66747299  0.50038919  0.50246871  1
  Ag  Ag14  1  0.66934936  0.83464546  0.50237592  1
  Ag  Ag15  1  0.00190025  0.16759254  0.50164264  1
  Ag  Ag16  1  0.00363068  0.50045100  0.50247669  1
  Ag  Ag17  1  0.00362751  0.83648041  0.50247586  1
  Ag  Ag18  1  0.13604587  0.06486840  0.60554061  1
  Ag  Ag19  1  0.13601998  0.40444781  0.60553307  1
  Ag  Ag20  1  0.13765746  0.73548167  0.60411714  1
  Ag  Ag21  1  0.47198697  0.06800447  0.60440868  1
  Ag  Ag22  1  0.47572787  0.40448460  0.60559388  1
  Ag  Ag23  1  0.47198185  0.73723351  0.60439913  1
  Ag  Ag24  1  0.80277390  0.06801880  0.60434582  1
  Ag  Ag25  1  0.80446470  0.40223316  0.60411800  1
  Ag  Ag26  1  0.80447909  0.73552041  0.60411230  1
  H  H27  1  0.25758873  0.29544647  0.64231364  1
