# generated using pymatgen
data_Fe2Te8Mo6N
_symmetry_space_group_name_H-M   'P 1'
_cell_length_a   7.22312727
_cell_length_b   7.08682392
_cell_length_c   29.37250900
_cell_angle_alpha   91.57772794
_cell_angle_beta   98.12045943
_cell_angle_gamma   93.99332592
_symmetry_Int_Tables_number   1
_chemical_formula_structural   Fe2Te8Mo6N
_chemical_formula_sum   'Fe4 Te16 Mo12 N2'
_cell_volume   1483.79736813
_cell_formula_units_Z   2
loop_
 _symmetry_equiv_pos_site_id
 _symmetry_equiv_pos_as_xyz
  1  'x, y, z'
loop_
 _atom_site_type_symbol
 _atom_site_label
 _atom_site_symmetry_multiplicity
 _atom_site_fract_x
 _atom_site_fract_y
 _atom_site_fract_z
 _atom_site_occupancy
  Fe  Fe0  1  0.94736764  0.13965352  0.46969891  1
  Fe  Fe1  1  0.85478617  0.09271990  0.66630025  1
  Fe  Fe2  1  0.05693100  0.86054300  0.27656700  1
  Fe  Fe3  1  0.05454159  0.86439190  0.52240451  1
  Mo  Mo4  1  0.24910720  0.55266007  0.34886616  1
  Mo  Mo5  1  0.25192921  0.54100125  0.59816383  1
  Mo  Mo6  1  0.75273813  0.45214320  0.39647951  1
  Mo  Mo7  1  0.76052458  0.43622535  0.64092008  1
  Mo  Mo8  1  0.41635134  0.25084452  0.38216197  1
  Mo  Mo9  1  0.42685558  0.23102845  0.62883762  1
  Mo  Mo10  1  0.57920477  0.75258899  0.36265001  1
  Mo  Mo11  1  0.58832324  0.74567393  0.61056175  1
  Mo  Mo12  1  0.53260700  0.41261200  0.31013000  1
  Mo  Mo13  1  0.53672187  0.41390287  0.55622061  1
  Mo  Mo14  1  0.46655581  0.59058389  0.43624998  1
  Mo  Mo15  1  0.47900086  0.56273189  0.68240684  1
  Te  Te16  1  0.13312171  0.38368468  0.42689226  1
  Te  Te17  1  0.13939898  0.35281951  0.67602378  1
  Te  Te18  1  0.86624900  0.61870000  0.31855000  1
  Te  Te19  1  0.87427905  0.62010883  0.56591341  1
  Te  Te20  1  0.73106900  0.11857500  0.34560400  1
  Te  Te21  1  0.72761660  0.10214629  0.58151808  1
  Te  Te22  1  0.26834287  0.88280959  0.40053260  1
  Te  Te23  1  0.28310496  0.86571386  0.65248063  1
  Te  Te24  1  0.38690600  0.74931100  0.27459600  1
  Te  Te25  1  0.38193874  0.74273560  0.52264442  1
  Te  Te26  1  0.61339444  0.25504166  0.46947686  1
  Te  Te27  1  0.63256271  0.23892635  0.71652949  1
  Te  Te28  1  0.18432800  0.21398100  0.29715900  1
  Te  Te29  1  0.19058040  0.21485584  0.54412546  1
  Te  Te30  1  0.81408009  0.78614254  0.44887559  1
  Te  Te31  1  0.82651766  0.75613753  0.69849410  1
  N  N32  1  0.46820734  0.61567909  0.75350628  1
  N  N33  1  0.46978007  0.62757690  0.79176161  1
