# generated using pymatgen
data_Ag27HCO
_symmetry_space_group_name_H-M   'P 1'
_cell_length_a   8.60496519
_cell_length_b   8.60496881
_cell_length_c   23.47925300
_cell_angle_alpha   90.00483404
_cell_angle_beta   93.49762144
_cell_angle_gamma   119.99565775
_symmetry_Int_Tables_number   1
_chemical_formula_structural   Ag27HCO
_chemical_formula_sum   'Ag27 H1 C1 O1'
_cell_volume   1501.93330901
_cell_formula_units_Z   1
loop_
 _symmetry_equiv_pos_site_id
 _symmetry_equiv_pos_as_xyz
  1  'x, y, z'
loop_
 _atom_site_type_symbol
 _atom_site_label
 _atom_site_symmetry_multiplicity
 _atom_site_fract_x
 _atom_site_fract_y
 _atom_site_fract_z
 _atom_site_occupancy
  Ag  Ag0  1  0.20000000  0.26666700  0.40000000  1
  Ag  Ag1  1  0.20000000  0.60000000  0.40000000  1
  Ag  Ag2  1  0.20000000  0.93333300  0.40000000  1
  Ag  Ag3  1  0.53333300  0.26666700  0.40000000  1
  Ag  Ag4  1  0.53333300  0.60000000  0.40000000  1
  Ag  Ag5  1  0.53333300  0.93333300  0.40000000  1
  Ag  Ag6  1  0.86666700  0.26666700  0.40000000  1
  Ag  Ag7  1  0.86666700  0.60000000  0.40000000  1
  Ag  Ag8  1  0.86666700  0.93333300  0.40000000  1
  Ag  Ag9  1  0.33419706  0.16867245  0.50303007  1
  Ag  Ag10  1  0.33462162  0.49912492  0.50314079  1
  Ag  Ag11  1  0.33331442  0.83341306  0.50258519  1
  Ag  Ag12  1  0.66625350  0.16668337  0.50262136  1
  Ag  Ag13  1  0.66594913  0.49978007  0.50253447  1
  Ag  Ag14  1  0.66631211  0.83338688  0.50247159  1
  Ag  Ag15  1  0.99962228  0.16654785  0.50271526  1
  Ag  Ag16  1  0.00079787  0.50091692  0.50209813  1
  Ag  Ag17  1  0.00068574  0.83346233  0.50227423  1
  Ag  Ag18  1  0.13228745  0.06554381  0.60474607  1
  Ag  Ag19  1  0.13229126  0.40046634  0.60454927  1
  Ag  Ag20  1  0.13398883  0.73397501  0.60506560  1
  Ag  Ag21  1  0.46696782  0.06602429  0.60512749  1
  Ag  Ag22  1  0.46831273  0.40086560  0.60742844  1
  Ag  Ag23  1  0.46745241  0.73500709  0.60528810  1
  Ag  Ag24  1  0.80050575  0.06718629  0.60577832  1
  Ag  Ag25  1  0.80395380  0.40000519  0.60364123  1
  Ag  Ag26  1  0.80231666  0.73688407  0.60381723  1
  C  C27  1  0.52716069  0.42299873  0.69896750  1
  H  H28  1  0.40736437  0.38319513  0.72417351  1
  O  O29  1  0.67362254  0.47312115  0.72329182  1
