# generated using pymatgen
data_Ag27HCO
_symmetry_space_group_name_H-M   'P 1'
_cell_length_a   8.60517300
_cell_length_b   8.60496305
_cell_length_c   24.34014600
_cell_angle_alpha   89.99904118
_cell_angle_beta   89.99896131
_cell_angle_gamma   90.00613242
_symmetry_Int_Tables_number   1
_chemical_formula_structural   Ag27HCO
_chemical_formula_sum   'Ag27 H1 C1 O1'
_cell_volume   1802.31954385
_cell_formula_units_Z   1
loop_
 _symmetry_equiv_pos_site_id
 _symmetry_equiv_pos_as_xyz
  1  'x, y, z'
loop_
 _atom_site_type_symbol
 _atom_site_label
 _atom_site_symmetry_multiplicity
 _atom_site_fract_x
 _atom_site_fract_y
 _atom_site_fract_z
 _atom_site_occupancy
  Ag  Ag0  1  0.33333300  0.00000000  0.45833300  1
  Ag  Ag1  1  0.33333300  0.33333300  0.45833300  1
  Ag  Ag2  1  0.33333300  0.66666700  0.45833300  1
  Ag  Ag3  1  0.66666700  0.00000000  0.45833300  1
  Ag  Ag4  1  0.66666700  0.33333300  0.45833300  1
  Ag  Ag5  1  0.66666700  0.66666700  0.45833300  1
  Ag  Ag6  1  0.00000000  0.00000000  0.45833300  1
  Ag  Ag7  1  0.00000000  0.33333300  0.45833300  1
  Ag  Ag8  1  0.00000000  0.66666700  0.45833300  1
  Ag  Ag9  1  0.33618133  0.99984348  0.62981062  1
  Ag  Ag10  1  0.36560998  0.33553282  0.63260367  1
  Ag  Ag11  1  0.33615725  0.66965562  0.62975493  1
  Ag  Ag12  1  0.66882076  0.00015304  0.63018346  1
  Ag  Ag13  1  0.68453650  0.33335453  0.63021560  1
  Ag  Ag14  1  0.66882643  0.66631404  0.63025767  1
  Ag  Ag15  1  0.00090832  0.99734815  0.63022911  1
  Ag  Ag16  1  0.00417084  0.33176638  0.63919860  1
  Ag  Ag17  1  0.00106193  0.66673577  0.63020851  1
  Ag  Ag18  1  0.17065784  0.16831141  0.54440933  1
  Ag  Ag19  1  0.17095416  0.49825397  0.54466286  1
  Ag  Ag20  1  0.16727889  0.83345128  0.54482893  1
  Ag  Ag21  1  0.50430610  0.16838858  0.54411913  1
  Ag  Ag22  1  0.50439003  0.49923771  0.54405998  1
  Ag  Ag23  1  0.50096597  0.83386291  0.54425240  1
  Ag  Ag24  1  0.84097982  0.16831734  0.54521198  1
  Ag  Ag25  1  0.84125418  0.49755865  0.54521526  1
  Ag  Ag26  1  0.83399546  0.83294501  0.54425906  1
  C  C27  1  0.19603198  0.32396885  0.69344911  1
  H  H28  1  0.12698790  0.31530628  0.76953049  1
  O  O29  1  0.22208696  0.31825157  0.74626413  1
