# generated using pymatgen
data_Fe4Te16Mo12H
_symmetry_space_group_name_H-M   'P 1'
_cell_length_a   7.22312727
_cell_length_b   7.08682392
_cell_length_c   29.37250900
_cell_angle_alpha   91.57772794
_cell_angle_beta   98.12045943
_cell_angle_gamma   93.99332592
_symmetry_Int_Tables_number   1
_chemical_formula_structural   Fe4Te16Mo12H
_chemical_formula_sum   'Fe4 Te16 Mo12 H1'
_cell_volume   1483.79736813
_cell_formula_units_Z   1
loop_
 _symmetry_equiv_pos_site_id
 _symmetry_equiv_pos_as_xyz
  1  'x, y, z'
loop_
 _atom_site_type_symbol
 _atom_site_label
 _atom_site_symmetry_multiplicity
 _atom_site_fract_x
 _atom_site_fract_y
 _atom_site_fract_z
 _atom_site_occupancy
  Fe  Fe0  1  0.94599438  0.13785267  0.46871435  1
  Fe  Fe1  1  0.85432565  0.08731129  0.68122647  1
  Fe  Fe2  1  0.05693100  0.86054300  0.27656700  1
  Fe  Fe3  1  0.05332571  0.86157611  0.52225539  1
  Mo  Mo4  1  0.24918525  0.55176983  0.34874534  1
  Mo  Mo5  1  0.24289008  0.54327162  0.59536339  1
  Mo  Mo6  1  0.75270721  0.45135949  0.39642291  1
  Mo  Mo7  1  0.74724126  0.44475920  0.64008707  1
  Mo  Mo8  1  0.41633048  0.24912550  0.38201212  1
  Mo  Mo9  1  0.41618974  0.23866313  0.62832074  1
  Mo  Mo10  1  0.57896786  0.75231551  0.36254181  1
  Mo  Mo11  1  0.58078881  0.74597923  0.60878722  1
  Mo  Mo12  1  0.53260700  0.41261200  0.31013000  1
  Mo  Mo13  1  0.53166867  0.41054749  0.55500641  1
  Mo  Mo14  1  0.46592556  0.58864032  0.43587952  1
  Mo  Mo15  1  0.46654142  0.57085440  0.67689559  1
  Te  Te16  1  0.13246892  0.38221762  0.42644074  1
  Te  Te17  1  0.12951357  0.37177195  0.67550423  1
  Te  Te18  1  0.86624900  0.61870000  0.31855000  1
  Te  Te19  1  0.86685636  0.61813230  0.56441715  1
  Te  Te20  1  0.73106900  0.11857500  0.34560400  1
  Te  Te21  1  0.72902654  0.10634553  0.58581584  1
  Te  Te22  1  0.26825124  0.88192769  0.40029843  1
  Te  Te23  1  0.27191642  0.87302181  0.64918639  1
  Te  Te24  1  0.38690600  0.74931100  0.27459600  1
  Te  Te25  1  0.38069212  0.74324852  0.52104891  1
  Te  Te26  1  0.61350956  0.25155603  0.46935075  1
  Te  Te27  1  0.60719008  0.25821439  0.71827580  1
  Te  Te28  1  0.18432800  0.21398100  0.29715900  1
  Te  Te29  1  0.18629594  0.21296326  0.54254855  1
  Te  Te30  1  0.81400486  0.78462607  0.44874642  1
  Te  Te31  1  0.81407170  0.74664226  0.70341085  1
  H  H32  1  0.94349632  0.08470812  0.73214116  1
