# generated using pymatgen
data_Ag27N2
_symmetry_space_group_name_H-M   'P 1'
_cell_length_a   8.60517300
_cell_length_b   8.60496305
_cell_length_c   24.34014600
_cell_angle_alpha   89.99904118
_cell_angle_beta   89.99896131
_cell_angle_gamma   90.00613242
_symmetry_Int_Tables_number   1
_chemical_formula_structural   Ag27N2
_chemical_formula_sum   'Ag27 N2'
_cell_volume   1802.31954385
_cell_formula_units_Z   1
loop_
 _symmetry_equiv_pos_site_id
 _symmetry_equiv_pos_as_xyz
  1  'x, y, z'
loop_
 _atom_site_type_symbol
 _atom_site_label
 _atom_site_symmetry_multiplicity
 _atom_site_fract_x
 _atom_site_fract_y
 _atom_site_fract_z
 _atom_site_occupancy
  Ag  Ag0  1  0.33333300  0.00000000  0.45833300  1
  Ag  Ag1  1  0.33333300  0.33333300  0.45833300  1
  Ag  Ag2  1  0.33333300  0.66666700  0.45833300  1
  Ag  Ag3  1  0.66666700  0.00000000  0.45833300  1
  Ag  Ag4  1  0.66666700  0.33333300  0.45833300  1
  Ag  Ag5  1  0.66666700  0.66666700  0.45833300  1
  Ag  Ag6  1  0.00000000  0.00000000  0.45833300  1
  Ag  Ag7  1  0.00000000  0.33333300  0.45833300  1
  Ag  Ag8  1  0.00000000  0.66666700  0.45833300  1
  Ag  Ag9  1  0.33335636  0.99833005  0.62771457  1
  Ag  Ag10  1  0.33334991  0.33335036  0.62604616  1
  Ag  Ag11  1  0.33335473  0.66830361  0.62769680  1
  Ag  Ag12  1  0.66657174  0.00005344  0.62783454  1
  Ag  Ag13  1  0.66830270  0.33335560  0.62769679  1
  Ag  Ag14  1  0.66657483  0.66657487  0.62781595  1
  Ag  Ag15  1  0.00005332  0.00005278  0.62784899  1
  Ag  Ag16  1  0.99832956  0.33335691  0.62771463  1
  Ag  Ag17  1  0.00005334  0.66657220  0.62783469  1
  Ag  Ag18  1  0.16677816  0.16677861  0.54311813  1
  Ag  Ag19  1  0.16677802  0.49986292  0.54310655  1
  Ag  Ag20  1  0.16633675  0.83335846  0.54309618  1
  Ag  Ag21  1  0.49986274  0.16677794  0.54310658  1
  Ag  Ag22  1  0.49986365  0.49986375  0.54309676  1
  Ag  Ag23  1  0.50030165  0.83335851  0.54308433  1
  Ag  Ag24  1  0.83335829  0.16633706  0.54309639  1
  Ag  Ag25  1  0.83335880  0.50030174  0.54308452  1
  Ag  Ag26  1  0.83335824  0.83335851  0.54315139  1
  N  N27  1  0.33335029  0.33335038  0.72145523  1
  N  N28  1  0.33328799  0.33328798  0.76689745  1
