# generated using pymatgen
data_Fe4Mo12HSe16
_symmetry_space_group_name_H-M   'P 1'
_cell_length_a   6.73059675
_cell_length_b   6.68252955
_cell_length_c   28.41042900
_cell_angle_alpha   94.71078376
_cell_angle_beta   91.18717718
_cell_angle_gamma   96.76332947
_symmetry_Int_Tables_number   1
_chemical_formula_structural   Fe4Mo12HSe16
_chemical_formula_sum   'Fe4 Mo12 H1 Se16'
_cell_volume   1264.05235895
_cell_formula_units_Z   1
loop_
 _symmetry_equiv_pos_site_id
 _symmetry_equiv_pos_as_xyz
  1  'x, y, z'
loop_
 _atom_site_type_symbol
 _atom_site_label
 _atom_site_symmetry_multiplicity
 _atom_site_fract_x
 _atom_site_fract_y
 _atom_site_fract_z
 _atom_site_occupancy
  Fe  Fe0  1  0.92616922  0.14905122  0.47945557  1
  Fe  Fe1  1  0.82746209  0.10038341  0.64928525  1
  Fe  Fe2  1  0.08366100  0.85003700  0.25310200  1
  Fe  Fe3  1  0.09825768  0.85493719  0.48429942  1
  Mo  Mo4  1  0.23137063  0.53761904  0.34773556  1
  Mo  Mo5  1  0.22964239  0.53207042  0.58623277  1
  Mo  Mo6  1  0.76826803  0.46080418  0.38779062  1
  Mo  Mo7  1  0.76870195  0.45292723  0.62397640  1
  Mo  Mo8  1  0.41070467  0.22922448  0.37757269  1
  Mo  Mo9  1  0.40933042  0.21639220  0.61573972  1
  Mo  Mo10  1  0.59140770  0.77334448  0.35832934  1
  Mo  Mo11  1  0.59069789  0.76801725  0.59579698  1
  Mo  Mo12  1  0.54876300  0.41297700  0.30450800  1
  Mo  Mo13  1  0.54768714  0.41131651  0.54166240  1
  Mo  Mo14  1  0.44991360  0.58791001  0.43218669  1
  Mo  Mo15  1  0.44997924  0.57866291  0.66892623  1
  Se  Se16  1  0.11575616  0.36365449  0.42359315  1
  Se  Se17  1  0.11494786  0.35478240  0.66182460  1
  Se  Se18  1  0.88453700  0.63734700  0.31138600  1
  Se  Se19  1  0.88507338  0.63609401  0.54944132  1
  Se  Se20  1  0.73331601  0.13564188  0.33450301  1
  Se  Se21  1  0.73254336  0.12040146  0.56712653  1
  Se  Se22  1  0.26070563  0.86652121  0.39961508  1
  Se  Se23  1  0.26991839  0.85775717  0.63979965  1
  Se  Se24  1  0.39326800  0.73478000  0.28166600  1
  Se  Se25  1  0.38859716  0.72667753  0.51940078  1
  Se  Se26  1  0.60691606  0.26577283  0.45482492  1
  Se  Se27  1  0.60052248  0.27314316  0.69716132  1
  Se  Se28  1  0.21444700  0.18780600  0.29890600  1
  Se  Se29  1  0.21215652  0.18550650  0.53622251  1
  Se  Se30  1  0.78531133  0.81007028  0.43763958  1
  Se  Se31  1  0.79442498  0.77830170  0.67877933  1
  H  H32  1  0.41042309  0.65044810  0.72834988  1
