# generated using pymatgen
data_Fe2Mo6Se8N
_symmetry_space_group_name_H-M   'P 1'
_cell_length_a   6.73059675
_cell_length_b   6.68252955
_cell_length_c   28.41042900
_cell_angle_alpha   94.71078376
_cell_angle_beta   91.18717718
_cell_angle_gamma   96.76332947
_symmetry_Int_Tables_number   1
_chemical_formula_structural   Fe2Mo6Se8N
_chemical_formula_sum   'Fe4 Mo12 Se16 N2'
_cell_volume   1264.05235895
_cell_formula_units_Z   2
loop_
 _symmetry_equiv_pos_site_id
 _symmetry_equiv_pos_as_xyz
  1  'x, y, z'
loop_
 _atom_site_type_symbol
 _atom_site_label
 _atom_site_symmetry_multiplicity
 _atom_site_fract_x
 _atom_site_fract_y
 _atom_site_fract_z
 _atom_site_occupancy
  Fe  Fe0  1  0.92715600  0.14985689  0.47955332  1
  Fe  Fe1  1  0.83113466  0.09158375  0.64874876  1
  Fe  Fe2  1  0.08366100  0.85003700  0.25310200  1
  Fe  Fe3  1  0.10012416  0.85442715  0.48300572  1
  Mo  Mo4  1  0.23168681  0.53731891  0.34784428  1
  Mo  Mo5  1  0.23280311  0.52773798  0.58640451  1
  Mo  Mo6  1  0.76856917  0.46049198  0.38765585  1
  Mo  Mo7  1  0.76808095  0.44725633  0.62380982  1
  Mo  Mo8  1  0.41115090  0.22822297  0.37740306  1
  Mo  Mo9  1  0.40993742  0.21320339  0.61547746  1
  Mo  Mo10  1  0.59152995  0.77319665  0.35832667  1
  Mo  Mo11  1  0.59175955  0.76168587  0.59585595  1
  Mo  Mo12  1  0.54876300  0.41297700  0.30450800  1
  Mo  Mo13  1  0.54900623  0.40684271  0.54137470  1
  Mo  Mo14  1  0.45036377  0.58668812  0.43220292  1
  Mo  Mo15  1  0.45164803  0.57203018  0.66941197  1
  Se  Se16  1  0.11643360  0.36206365  0.42354282  1
  Se  Se17  1  0.11562778  0.34774505  0.66139260  1
  Se  Se18  1  0.88453700  0.63734700  0.31138600  1
  Se  Se19  1  0.88650550  0.63215123  0.54936568  1
  Se  Se20  1  0.73376312  0.13545774  0.33430413  1
  Se  Se21  1  0.73263321  0.11490075  0.56704310  1
  Se  Se22  1  0.26070604  0.86616169  0.39977565  1
  Se  Se23  1  0.27031892  0.85281388  0.63965484  1
  Se  Se24  1  0.39326800  0.73478000  0.28166600  1
  Se  Se25  1  0.38799025  0.72334624  0.51954556  1
  Se  Se26  1  0.60780682  0.26443199  0.45454367  1
  Se  Se27  1  0.60112857  0.26142426  0.69625869  1
  Se  Se28  1  0.21444700  0.18780600  0.29890600  1
  Se  Se29  1  0.21356618  0.18219153  0.53598830  1
  Se  Se30  1  0.78453658  0.80988631  0.43775116  1
  Se  Se31  1  0.79916497  0.77009183  0.67866463  1
  N  N32  1  0.41986390  0.63954834  0.74314951  1
  N  N33  1  0.41464310  0.65813134  0.78263464  1
