# generated using pymatgen
data_Ag27HO2
_symmetry_space_group_name_H-M   'P 1'
_cell_length_a   8.60517300
_cell_length_b   8.60496305
_cell_length_c   24.34014600
_cell_angle_alpha   89.99904118
_cell_angle_beta   89.99896131
_cell_angle_gamma   90.00613242
_symmetry_Int_Tables_number   1
_chemical_formula_structural   Ag27HO2
_chemical_formula_sum   'Ag27 H1 O2'
_cell_volume   1802.31954385
_cell_formula_units_Z   1
loop_
 _symmetry_equiv_pos_site_id
 _symmetry_equiv_pos_as_xyz
  1  'x, y, z'
loop_
 _atom_site_type_symbol
 _atom_site_label
 _atom_site_symmetry_multiplicity
 _atom_site_fract_x
 _atom_site_fract_y
 _atom_site_fract_z
 _atom_site_occupancy
  Ag  Ag0  1  0.33333300  0.00000000  0.45833300  1
  Ag  Ag1  1  0.33333300  0.33333300  0.45833300  1
  Ag  Ag2  1  0.33333300  0.66666700  0.45833300  1
  Ag  Ag3  1  0.66666700  0.00000000  0.45833300  1
  Ag  Ag4  1  0.66666700  0.33333300  0.45833300  1
  Ag  Ag5  1  0.66666700  0.66666700  0.45833300  1
  Ag  Ag6  1  0.00000000  0.00000000  0.45833300  1
  Ag  Ag7  1  0.00000000  0.33333300  0.45833300  1
  Ag  Ag8  1  0.00000000  0.66666700  0.45833300  1
  Ag  Ag9  1  0.33332337  0.01226562  0.62855284  1
  Ag  Ag10  1  0.33363034  0.35176039  0.63153583  1
  Ag  Ag11  1  0.33330271  0.67917609  0.62594357  1
  Ag  Ag12  1  0.66633899  0.00056090  0.62712122  1
  Ag  Ag13  1  0.66622201  0.33361250  0.62765340  1
  Ag  Ag14  1  0.66659903  0.66704251  0.62649903  1
  Ag  Ag15  1  0.00017793  0.00053324  0.62718192  1
  Ag  Ag16  1  0.00085835  0.33362396  0.62770632  1
  Ag  Ag17  1  0.00005654  0.66695745  0.62659053  1
  Ag  Ag18  1  0.16808076  0.17087749  0.54342617  1
  Ag  Ag19  1  0.16767369  0.50161621  0.54289563  1
  Ag  Ag20  1  0.16649092  0.83739752  0.54240766  1
  Ag  Ag21  1  0.49872178  0.17088136  0.54339142  1
  Ag  Ag22  1  0.49914253  0.50165383  0.54285036  1
  Ag  Ag23  1  0.50004045  0.83739662  0.54238965  1
  Ag  Ag24  1  0.83343640  0.16695289  0.54280914  1
  Ag  Ag25  1  0.83343356  0.49943231  0.54266111  1
  Ag  Ag26  1  0.83339296  0.83358095  0.54248420  1
  O  O27  1  0.33371784  0.28793644  0.72291354  1
  O  O28  1  0.32980922  0.35486471  0.77249570  1
  H  H29  1  0.33941670  0.47084651  0.76779315  1
