# generated using pymatgen
data_Ag27HN2
_symmetry_space_group_name_H-M   'P 1'
_cell_length_a   8.60517300
_cell_length_b   8.60496305
_cell_length_c   24.34014600
_cell_angle_alpha   89.99904118
_cell_angle_beta   89.99896131
_cell_angle_gamma   90.00613242
_symmetry_Int_Tables_number   1
_chemical_formula_structural   Ag27HN2
_chemical_formula_sum   'Ag27 H1 N2'
_cell_volume   1802.31954385
_cell_formula_units_Z   1
loop_
 _symmetry_equiv_pos_site_id
 _symmetry_equiv_pos_as_xyz
  1  'x, y, z'
loop_
 _atom_site_type_symbol
 _atom_site_label
 _atom_site_symmetry_multiplicity
 _atom_site_fract_x
 _atom_site_fract_y
 _atom_site_fract_z
 _atom_site_occupancy
  Ag  Ag0  1  0.33333300  0.00000000  0.45833300  1
  Ag  Ag1  1  0.33333300  0.33333300  0.45833300  1
  Ag  Ag2  1  0.33333300  0.66666700  0.45833300  1
  Ag  Ag3  1  0.66666700  0.00000000  0.45833300  1
  Ag  Ag4  1  0.66666700  0.33333300  0.45833300  1
  Ag  Ag5  1  0.66666700  0.66666700  0.45833300  1
  Ag  Ag6  1  0.00000000  0.00000000  0.45833300  1
  Ag  Ag7  1  0.00000000  0.33333300  0.45833300  1
  Ag  Ag8  1  0.00000000  0.66666700  0.45833300  1
  Ag  Ag9  1  0.33309289  0.99772574  0.62777573  1
  Ag  Ag10  1  0.32843201  0.33342240  0.62820264  1
  Ag  Ag11  1  0.33308825  0.66915664  0.62775306  1
  Ag  Ag12  1  0.66654736  0.99993676  0.62814355  1
  Ag  Ag13  1  0.66796596  0.33336112  0.62860740  1
  Ag  Ag14  1  0.66656022  0.66669939  0.62811720  1
  Ag  Ag15  1  0.00014839  0.99997117  0.62817423  1
  Ag  Ag16  1  0.99706327  0.33335424  0.62864566  1
  Ag  Ag17  1  0.00015397  0.66662990  0.62816384  1
  Ag  Ag18  1  0.16691442  0.16723917  0.54328831  1
  Ag  Ag19  1  0.16691934  0.49945161  0.54327888  1
  Ag  Ag20  1  0.16589035  0.83338203  0.54292818  1
  Ag  Ag21  1  0.49923307  0.16769737  0.54360973  1
  Ag  Ag22  1  0.49922536  0.49902143  0.54359886  1
  Ag  Ag23  1  0.50058366  0.83339276  0.54297961  1
  Ag  Ag24  1  0.83315716  0.16658937  0.54327738  1
  Ag  Ag25  1  0.83315796  0.50003392  0.54326400  1
  Ag  Ag26  1  0.83338504  0.83335531  0.54323122  1
  N  N27  1  0.35484366  0.33354662  0.71885387  1
  N  N28  1  0.32220220  0.33267361  0.76572014  1
  H  H29  1  0.41188097  0.33332760  0.79563872  1
