# generated using pymatgen
data_Fe4Mo12H(Se8N)2
_symmetry_space_group_name_H-M   'P 1'
_cell_length_a   6.73059675
_cell_length_b   6.68252955
_cell_length_c   28.41042900
_cell_angle_alpha   94.71078376
_cell_angle_beta   91.18717718
_cell_angle_gamma   96.76332947
_symmetry_Int_Tables_number   1
_chemical_formula_structural   Fe4Mo12H(Se8N)2
_chemical_formula_sum   'Fe4 Mo12 H1 Se16 N2'
_cell_volume   1264.05235895
_cell_formula_units_Z   1
loop_
 _symmetry_equiv_pos_site_id
 _symmetry_equiv_pos_as_xyz
  1  'x, y, z'
loop_
 _atom_site_type_symbol
 _atom_site_label
 _atom_site_symmetry_multiplicity
 _atom_site_fract_x
 _atom_site_fract_y
 _atom_site_fract_z
 _atom_site_occupancy
  Fe  Fe0  1  0.91254011  0.14650191  0.48072403  1
  Fe  Fe1  1  0.86423124  0.14009568  0.68768521  1
  Fe  Fe2  1  0.08366100  0.85003700  0.25310200  1
  Fe  Fe3  1  0.07972732  0.84879507  0.48948728  1
  Mo  Mo4  1  0.23176679  0.53633843  0.34763611  1
  Mo  Mo5  1  0.21981579  0.53966725  0.58105962  1
  Mo  Mo6  1  0.76668642  0.45894523  0.38708120  1
  Mo  Mo7  1  0.75101097  0.45232862  0.62237025  1
  Mo  Mo8  1  0.40923801  0.22500604  0.37680608  1
  Mo  Mo9  1  0.39381989  0.22800432  0.61233285  1
  Mo  Mo10  1  0.59049614  0.77429150  0.35786408  1
  Mo  Mo11  1  0.58202699  0.76672803  0.59337096  1
  Mo  Mo12  1  0.54876300  0.41297700  0.30450800  1
  Mo  Mo13  1  0.54004491  0.40938912  0.53820648  1
  Mo  Mo14  1  0.44930265  0.58508050  0.43129100  1
  Mo  Mo15  1  0.43491715  0.58822409  0.66408209  1
  Se  Se16  1  0.11422984  0.35900019  0.42319562  1
  Se  Se17  1  0.10296332  0.37522567  0.65675535  1
  Se  Se18  1  0.88453700  0.63734700  0.31138600  1
  Se  Se19  1  0.87444756  0.63428781  0.54693242  1
  Se  Se20  1  0.73372835  0.13482559  0.33349370  1
  Se  Se21  1  0.72634622  0.12826171  0.57003608  1
  Se  Se22  1  0.25948429  0.86343340  0.39955262  1
  Se  Se23  1  0.25443070  0.86616592  0.63474967  1
  Se  Se24  1  0.39326800  0.73478000  0.28166600  1
  Se  Se25  1  0.39089081  0.73734883  0.51613484  1
  Se  Se26  1  0.60419033  0.26143551  0.45321518  1
  Se  Se27  1  0.56155646  0.27745424  0.69420439  1
  Se  Se28  1  0.21444700  0.18780600  0.29890600  1
  Se  Se29  1  0.20518830  0.18715410  0.53270518  1
  Se  Se30  1  0.78523279  0.80929348  0.43651918  1
  Se  Se31  1  0.77720562  0.78261812  0.67485551  1
  N  N32  1  0.91602251  0.14146157  0.74672003  1
  N  N33  1  0.87435859  0.13228121  0.78714722  1
  H  H34  1  0.98463586  0.12971158  0.81329463  1
