# generated using pymatgen
data_Fe4Te16Mo12H
_symmetry_space_group_name_H-M   'P 1'
_cell_length_a   7.22312727
_cell_length_b   7.08682392
_cell_length_c   29.37250900
_cell_angle_alpha   91.57772794
_cell_angle_beta   98.12045943
_cell_angle_gamma   93.99332592
_symmetry_Int_Tables_number   1
_chemical_formula_structural   Fe4Te16Mo12H
_chemical_formula_sum   'Fe4 Te16 Mo12 H1'
_cell_volume   1483.79736813
_cell_formula_units_Z   1
loop_
 _symmetry_equiv_pos_site_id
 _symmetry_equiv_pos_as_xyz
  1  'x, y, z'
loop_
 _atom_site_type_symbol
 _atom_site_label
 _atom_site_symmetry_multiplicity
 _atom_site_fract_x
 _atom_site_fract_y
 _atom_site_fract_z
 _atom_site_occupancy
  Fe  Fe0  1  0.95876963  0.12459516  0.47026523  1
  Fe  Fe1  1  0.83484150  0.11104782  0.67096177  1
  Fe  Fe2  1  0.05693100  0.86054300  0.27656700  1
  Fe  Fe3  1  0.05633967  0.87657716  0.52156269  1
  Mo  Mo4  1  0.24988747  0.55147790  0.34921218  1
  Mo  Mo5  1  0.26220843  0.54115305  0.59784137  1
  Mo  Mo6  1  0.75339464  0.44984988  0.39639383  1
  Mo  Mo7  1  0.77392543  0.44449922  0.63973145  1
  Mo  Mo8  1  0.41735621  0.24895237  0.38229020  1
  Mo  Mo9  1  0.44407117  0.23529172  0.63021577  1
  Mo  Mo10  1  0.57964000  0.75149985  0.36276877  1
  Mo  Mo11  1  0.59688315  0.74682281  0.60992433  1
  Mo  Mo12  1  0.53260700  0.41261200  0.31013000  1
  Mo  Mo13  1  0.54815706  0.41189354  0.55620912  1
  Mo  Mo14  1  0.46704824  0.58667896  0.43629884  1
  Mo  Mo15  1  0.48487246  0.56190785  0.67871314  1
  Te  Te16  1  0.13414612  0.38159082  0.42761826  1
  Te  Te17  1  0.14786978  0.35235526  0.67703486  1
  Te  Te18  1  0.86624900  0.61870000  0.31855000  1
  Te  Te19  1  0.88425814  0.62009329  0.56455386  1
  Te  Te20  1  0.73106900  0.11857500  0.34560400  1
  Te  Te21  1  0.74323681  0.10532401  0.58316683  1
  Te  Te22  1  0.26966891  0.88141713  0.40113229  1
  Te  Te23  1  0.29139537  0.86880630  0.65198733  1
  Te  Te24  1  0.38690600  0.74931100  0.27459600  1
  Te  Te25  1  0.38749894  0.74265486  0.52307274  1
  Te  Te26  1  0.62101925  0.25071428  0.46939890  1
  Te  Te27  1  0.64476782  0.27299492  0.72812946  1
  Te  Te28  1  0.18432800  0.21398100  0.29715900  1
  Te  Te29  1  0.20598764  0.21343974  0.54527360  1
  Te  Te30  1  0.81152961  0.78227652  0.44849383  1
  Te  Te31  1  0.82601315  0.76396120  0.69920233  1
  H  H32  1  0.47181681  0.10055642  0.73543130  1
