# generated using pymatgen
data_Ag27H
_symmetry_space_group_name_H-M   'P 1'
_cell_length_a   8.60517300
_cell_length_b   8.60496305
_cell_length_c   24.34014600
_cell_angle_alpha   89.99904118
_cell_angle_beta   89.99896131
_cell_angle_gamma   90.00613242
_symmetry_Int_Tables_number   1
_chemical_formula_structural   Ag27H
_chemical_formula_sum   'Ag27 H1'
_cell_volume   1802.31954385
_cell_formula_units_Z   1
loop_
 _symmetry_equiv_pos_site_id
 _symmetry_equiv_pos_as_xyz
  1  'x, y, z'
loop_
 _atom_site_type_symbol
 _atom_site_label
 _atom_site_symmetry_multiplicity
 _atom_site_fract_x
 _atom_site_fract_y
 _atom_site_fract_z
 _atom_site_occupancy
  Ag  Ag0  1  0.33333300  0.00000000  0.45833300  1
  Ag  Ag1  1  0.33333300  0.33333300  0.45833300  1
  Ag  Ag2  1  0.33333300  0.66666700  0.45833300  1
  Ag  Ag3  1  0.66666700  0.00000000  0.45833300  1
  Ag  Ag4  1  0.66666700  0.33333300  0.45833300  1
  Ag  Ag5  1  0.66666700  0.66666700  0.45833300  1
  Ag  Ag6  1  0.00000000  0.00000000  0.45833300  1
  Ag  Ag7  1  0.00000000  0.33333300  0.45833300  1
  Ag  Ag8  1  0.00000000  0.66666700  0.45833300  1
  Ag  Ag9  1  0.33481763  0.99998911  0.62900049  1
  Ag  Ag10  1  0.33482153  0.33482164  0.63070970  1
  Ag  Ag11  1  0.33482477  0.66515822  0.63071027  1
  Ag  Ag12  1  0.66516764  0.99999417  0.62900222  1
  Ag  Ag13  1  0.66515712  0.33482477  0.63071033  1
  Ag  Ag14  1  0.66516201  0.66516304  0.63071019  1
  Ag  Ag15  1  0.99999081  0.99999141  0.62963865  1
  Ag  Ag16  1  0.99998844  0.33481799  0.62900068  1
  Ag  Ag17  1  0.99999340  0.66516838  0.62900237  1
  Ag  Ag18  1  0.16765143  0.16765158  0.54451577  1
  Ag  Ag19  1  0.16736451  0.49999849  0.54376404  1
  Ag  Ag20  1  0.16765288  0.83234284  0.54451599  1
  Ag  Ag21  1  0.49999828  0.16736448  0.54376388  1
  Ag  Ag22  1  0.49999373  0.49999391  0.54072061  1
  Ag  Ag23  1  0.49999846  0.83262701  0.54376264  1
  Ag  Ag24  1  0.83234231  0.16765292  0.54451602  1
  Ag  Ag25  1  0.83262624  0.49999862  0.54376282  1
  Ag  Ag26  1  0.83234407  0.83234452  0.54451664  1
  H  H27  1  0.49998393  0.49998469  0.65306899  1
