# generated using pymatgen
data_Fe4Mo12H(Se8N)2
_symmetry_space_group_name_H-M   'P 1'
_cell_length_a   6.73059675
_cell_length_b   6.68252955
_cell_length_c   28.41042900
_cell_angle_alpha   94.71078376
_cell_angle_beta   91.18717718
_cell_angle_gamma   96.76332947
_symmetry_Int_Tables_number   1
_chemical_formula_structural   Fe4Mo12H(Se8N)2
_chemical_formula_sum   'Fe4 Mo12 H1 Se16 N2'
_cell_volume   1264.05235895
_cell_formula_units_Z   1
loop_
 _symmetry_equiv_pos_site_id
 _symmetry_equiv_pos_as_xyz
  1  'x, y, z'
loop_
 _atom_site_type_symbol
 _atom_site_label
 _atom_site_symmetry_multiplicity
 _atom_site_fract_x
 _atom_site_fract_y
 _atom_site_fract_z
 _atom_site_occupancy
  Fe  Fe0  1  0.92168569  0.14723807  0.48083046  1
  Fe  Fe1  1  0.85357099  0.10837439  0.65629269  1
  Fe  Fe2  1  0.08366100  0.85003700  0.25310200  1
  Fe  Fe3  1  0.09260273  0.85202180  0.48665946  1
  Mo  Mo4  1  0.23135511  0.53703477  0.34796608  1
  Mo  Mo5  1  0.23156945  0.53422310  0.58569796  1
  Mo  Mo6  1  0.76870548  0.46010805  0.38770046  1
  Mo  Mo7  1  0.76734139  0.45431424  0.62464039  1
  Mo  Mo8  1  0.41084525  0.22793157  0.37747479  1
  Mo  Mo9  1  0.40459876  0.22563234  0.61603756  1
  Mo  Mo10  1  0.59098573  0.77317729  0.35837841  1
  Mo  Mo11  1  0.59077679  0.76345903  0.59555798  1
  Mo  Mo12  1  0.54876300  0.41297700  0.30450800  1
  Mo  Mo13  1  0.54848975  0.40950485  0.54158846  1
  Mo  Mo14  1  0.45069439  0.58672679  0.43208762  1
  Mo  Mo15  1  0.45075421  0.59237346  0.67338689  1
  Se  Se16  1  0.11595404  0.36148245  0.42405773  1
  Se  Se17  1  0.11957674  0.37145884  0.66304161  1
  Se  Se18  1  0.88453700  0.63734700  0.31138600  1
  Se  Se19  1  0.88597866  0.63312319  0.54913396  1
  Se  Se20  1  0.73365800  0.13534583  0.33431609  1
  Se  Se21  1  0.73213498  0.12072824  0.56908562  1
  Se  Se22  1  0.26051708  0.86528049  0.40009276  1
  Se  Se23  1  0.26949377  0.86081213  0.63822214  1
  Se  Se24  1  0.39326800  0.73478000  0.28166600  1
  Se  Se25  1  0.39272729  0.72898905  0.51887773  1
  Se  Se26  1  0.60757418  0.26441172  0.45464725  1
  Se  Se27  1  0.59445957  0.26411658  0.69566133  1
  Se  Se28  1  0.21444700  0.18780600  0.29890600  1
  Se  Se29  1  0.21225239  0.18693273  0.53590369  1
  Se  Se30  1  0.78625718  0.80983952  0.43761308  1
  Se  Se31  1  0.80227672  0.77659200  0.67928268  1
  N  N32  1  0.44474193  0.64957982  0.74061135  1
  N  N33  1  0.44668811  0.67569438  0.78285969  1
  H  H34  1  0.53208947  0.58689270  0.80218690  1
