# generated using pymatgen
data_Fe4Mo12H(Se8N)2
_symmetry_space_group_name_H-M   'P 1'
_cell_length_a   6.73059675
_cell_length_b   6.68252955
_cell_length_c   28.41042900
_cell_angle_alpha   94.71078376
_cell_angle_beta   91.18717718
_cell_angle_gamma   96.76332947
_symmetry_Int_Tables_number   1
_chemical_formula_structural   Fe4Mo12H(Se8N)2
_chemical_formula_sum   'Fe4 Mo12 H1 Se16 N2'
_cell_volume   1264.05235895
_cell_formula_units_Z   1
loop_
 _symmetry_equiv_pos_site_id
 _symmetry_equiv_pos_as_xyz
  1  'x, y, z'
loop_
 _atom_site_type_symbol
 _atom_site_label
 _atom_site_symmetry_multiplicity
 _atom_site_fract_x
 _atom_site_fract_y
 _atom_site_fract_z
 _atom_site_occupancy
  Fe  Fe0  1  0.92604339  0.15020788  0.47958900  1
  Fe  Fe1  1  0.83204235  0.10090470  0.64851855  1
  Fe  Fe2  1  0.08366100  0.85003700  0.25310200  1
  Fe  Fe3  1  0.10040600  0.85749428  0.48336223  1
  Mo  Mo4  1  0.23140317  0.53759057  0.34784830  1
  Mo  Mo5  1  0.23110803  0.53194720  0.58624081  1
  Mo  Mo6  1  0.76850493  0.46102191  0.38773417  1
  Mo  Mo7  1  0.76815254  0.45403361  0.62429510  1
  Mo  Mo8  1  0.41096389  0.22894268  0.37753016  1
  Mo  Mo9  1  0.40714231  0.22028432  0.61597864  1
  Mo  Mo10  1  0.59152800  0.77356084  0.35834567  1
  Mo  Mo11  1  0.59006176  0.76704645  0.59586482  1
  Mo  Mo12  1  0.54876300  0.41297700  0.30450800  1
  Mo  Mo13  1  0.54800271  0.41086217  0.54170758  1
  Mo  Mo14  1  0.45029356  0.58774897  0.43222288  1
  Mo  Mo15  1  0.44947873  0.58655516  0.67276081  1
  Se  Se16  1  0.11629477  0.36314094  0.42371519  1
  Se  Se17  1  0.11562938  0.35722206  0.66240984  1
  Se  Se18  1  0.88453700  0.63734700  0.31138600  1
  Se  Se19  1  0.88570100  0.63541976  0.54950989  1
  Se  Se20  1  0.73367962  0.13580617  0.33453029  1
  Se  Se21  1  0.73046190  0.11921951  0.56717032  1
  Se  Se22  1  0.26034081  0.86670622  0.39977350  1
  Se  Se23  1  0.26691800  0.85763142  0.63911553  1
  Se  Se24  1  0.39326800  0.73478000  0.28166600  1
  Se  Se25  1  0.38842734  0.72712545  0.51937000  1
  Se  Se26  1  0.60732064  0.26571269  0.45481993  1
  Se  Se27  1  0.59913534  0.26183060  0.69518805  1
  Se  Se28  1  0.21444700  0.18780600  0.29890600  1
  Se  Se29  1  0.21201820  0.18603141  0.53610320  1
  Se  Se30  1  0.78500712  0.81049025  0.43777602  1
  Se  Se31  1  0.79869540  0.77913069  0.67817419  1
  N  N32  1  0.44342310  0.64125857  0.74020166  1
  N  N33  1  0.44500916  0.67021930  0.78221194  1
  H  H34  1  0.52865864  0.58448796  0.80280430  1
