# generated using pymatgen
data_Ag27H
_symmetry_space_group_name_H-M   'P 1'
_cell_length_a   8.60496519
_cell_length_b   8.60496881
_cell_length_c   23.47925300
_cell_angle_alpha   90.00483404
_cell_angle_beta   93.49762144
_cell_angle_gamma   119.99565775
_symmetry_Int_Tables_number   1
_chemical_formula_structural   Ag27H
_chemical_formula_sum   'Ag27 H1'
_cell_volume   1501.93330901
_cell_formula_units_Z   1
loop_
 _symmetry_equiv_pos_site_id
 _symmetry_equiv_pos_as_xyz
  1  'x, y, z'
loop_
 _atom_site_type_symbol
 _atom_site_label
 _atom_site_symmetry_multiplicity
 _atom_site_fract_x
 _atom_site_fract_y
 _atom_site_fract_z
 _atom_site_occupancy
  Ag  Ag0  1  0.20000000  0.26666700  0.40000000  1
  Ag  Ag1  1  0.20000000  0.60000000  0.40000000  1
  Ag  Ag2  1  0.20000000  0.93333300  0.40000000  1
  Ag  Ag3  1  0.53333300  0.26666700  0.40000000  1
  Ag  Ag4  1  0.53333300  0.60000000  0.40000000  1
  Ag  Ag5  1  0.53333300  0.93333300  0.40000000  1
  Ag  Ag6  1  0.86666700  0.26666700  0.40000000  1
  Ag  Ag7  1  0.86666700  0.60000000  0.40000000  1
  Ag  Ag8  1  0.86666700  0.93333300  0.40000000  1
  Ag  Ag9  1  0.33562659  0.16752016  0.50180985  1
  Ag  Ag10  1  0.33562701  0.50139628  0.50180830  1
  Ag  Ag11  1  0.33528042  0.83429582  0.50231790  1
  Ag  Ag12  1  0.66904519  0.16808490  0.50231724  1
  Ag  Ag13  1  0.66722868  0.50027132  0.50294002  1
  Ag  Ag14  1  0.66904967  0.83426619  0.50231679  1
  Ag  Ag15  1  0.00173256  0.16751265  0.50182124  1
  Ag  Ag16  1  0.00332761  0.50025242  0.50294355  1
  Ag  Ag17  1  0.00332332  0.83638445  0.50294310  1
  Ag  Ag18  1  0.13572191  0.06503372  0.60586858  1
  Ag  Ag19  1  0.13569425  0.40395685  0.60586255  1
  Ag  Ag20  1  0.13703496  0.73517017  0.60461715  1
  Ag  Ag21  1  0.47124273  0.06773331  0.60409223  1
  Ag  Ag22  1  0.47463249  0.40394132  0.60587423  1
  Ag  Ag23  1  0.47123342  0.73676402  0.60408359  1
  Ag  Ag24  1  0.80225068  0.06775453  0.60410804  1
  Ag  Ag25  1  0.80400436  0.40210421  0.60463276  1
  Ag  Ag26  1  0.80401583  0.73519156  0.60463569  1
  H  H27  1  0.25736021  0.29533578  0.64431916  1
