# generated using pymatgen
data_Fe4Te16Mo12H3N
_symmetry_space_group_name_H-M   'P 1'
_cell_length_a   7.22312727
_cell_length_b   7.08682392
_cell_length_c   29.37250900
_cell_angle_alpha   91.57772794
_cell_angle_beta   98.12045943
_cell_angle_gamma   93.99332592
_symmetry_Int_Tables_number   1
_chemical_formula_structural   Fe4Te16Mo12H3N
_chemical_formula_sum   'Fe4 Te16 Mo12 H3 N1'
_cell_volume   1483.79736813
_cell_formula_units_Z   1
loop_
 _symmetry_equiv_pos_site_id
 _symmetry_equiv_pos_as_xyz
  1  'x, y, z'
loop_
 _atom_site_type_symbol
 _atom_site_label
 _atom_site_symmetry_multiplicity
 _atom_site_fract_x
 _atom_site_fract_y
 _atom_site_fract_z
 _atom_site_occupancy
  Fe  Fe0  1  0.93447116  0.12678653  0.46258999  1
  Fe  Fe1  1  0.84131153  0.11057328  0.68783638  1
  Fe  Fe2  1  0.05693100  0.86054300  0.27656700  1
  Fe  Fe3  1  0.03997113  0.85955175  0.52553761  1
  Mo  Mo4  1  0.24821422  0.55157270  0.34826367  1
  Mo  Mo5  1  0.21909473  0.54148348  0.59205999  1
  Mo  Mo6  1  0.74981205  0.44989991  0.39654658  1
  Mo  Mo7  1  0.71753427  0.43338338  0.64094367  1
  Mo  Mo8  1  0.41400005  0.24763550  0.38173150  1
  Mo  Mo9  1  0.38685248  0.23358284  0.62550042  1
  Mo  Mo10  1  0.57761154  0.75173426  0.36287611  1
  Mo  Mo11  1  0.55821008  0.74287308  0.60796195  1
  Mo  Mo12  1  0.53260700  0.41261200  0.31013000  1
  Mo  Mo13  1  0.51274381  0.40370156  0.55347263  1
  Mo  Mo14  1  0.46070062  0.58610756  0.43578460  1
  Mo  Mo15  1  0.43249762  0.56823314  0.67478186  1
  Te  Te16  1  0.12863782  0.38111056  0.42502778  1
  Te  Te17  1  0.09910443  0.37112725  0.67073214  1
  Te  Te18  1  0.86624900  0.61870000  0.31855000  1
  Te  Te19  1  0.84321466  0.61273974  0.56502628  1
  Te  Te20  1  0.73106900  0.11857500  0.34560400  1
  Te  Te21  1  0.70819562  0.10268143  0.58885314  1
  Te  Te22  1  0.26577868  0.88115641  0.39996957  1
  Te  Te23  1  0.24059154  0.87136834  0.64606236  1
  Te  Te24  1  0.38690600  0.74931100  0.27459600  1
  Te  Te25  1  0.36572817  0.74195803  0.51992104  1
  Te  Te26  1  0.60879072  0.24762025  0.46928154  1
  Te  Te27  1  0.55741046  0.25360102  0.71650541  1
  Te  Te28  1  0.18432800  0.21398100  0.29715900  1
  Te  Te29  1  0.16295363  0.21442264  0.53822181  1
  Te  Te30  1  0.81094084  0.77418583  0.45061981  1
  Te  Te31  1  0.77693829  0.74844815  0.69838531  1
  N  N32  1  0.97897348  0.12147888  0.76018304  1
  H  H33  1  0.11878711  0.09657192  0.76600122  1
  H  H34  1  0.96780051  0.25021091  0.77650227  1
  H  H35  1  0.91273238  0.02272568  0.77883512  1
