# generated using pymatgen
data_Fe4Te16Mo12H
_symmetry_space_group_name_H-M   'P 1'
_cell_length_a   7.22312727
_cell_length_b   7.08682392
_cell_length_c   29.37250900
_cell_angle_alpha   91.57772794
_cell_angle_beta   98.12045943
_cell_angle_gamma   93.99332592
_symmetry_Int_Tables_number   1
_chemical_formula_structural   Fe4Te16Mo12H
_chemical_formula_sum   'Fe4 Te16 Mo12 H1'
_cell_volume   1483.79736813
_cell_formula_units_Z   1
loop_
 _symmetry_equiv_pos_site_id
 _symmetry_equiv_pos_as_xyz
  1  'x, y, z'
loop_
 _atom_site_type_symbol
 _atom_site_label
 _atom_site_symmetry_multiplicity
 _atom_site_fract_x
 _atom_site_fract_y
 _atom_site_fract_z
 _atom_site_occupancy
  Fe  Fe0  1  0.94772379  0.13747854  0.46949725  1
  Fe  Fe1  1  0.84802893  0.08978130  0.66504392  1
  Fe  Fe2  1  0.05693100  0.86054300  0.27656700  1
  Fe  Fe3  1  0.05299757  0.86001863  0.52237639  1
  Mo  Mo4  1  0.24917146  0.55200739  0.34883945  1
  Mo  Mo5  1  0.25035164  0.53187700  0.59672794  1
  Mo  Mo6  1  0.75273836  0.45173310  0.39633144  1
  Mo  Mo7  1  0.76296670  0.42946964  0.63955166  1
  Mo  Mo8  1  0.41605125  0.24915660  0.38195173  1
  Mo  Mo9  1  0.43085228  0.21901133  0.62787204  1
  Mo  Mo10  1  0.57898724  0.75272022  0.36262577  1
  Mo  Mo11  1  0.58865098  0.73987557  0.60898090  1
  Mo  Mo12  1  0.53260700  0.41261200  0.31013000  1
  Mo  Mo13  1  0.53642633  0.40689001  0.55572786  1
  Mo  Mo14  1  0.46607719  0.58793549  0.43580628  1
  Mo  Mo15  1  0.47932622  0.55574080  0.67917842  1
  Te  Te16  1  0.13228896  0.38145661  0.42667777  1
  Te  Te17  1  0.14113679  0.34404914  0.67532939  1
  Te  Te18  1  0.86624900  0.61870000  0.31855000  1
  Te  Te19  1  0.87427926  0.61184657  0.56457777  1
  Te  Te20  1  0.73106900  0.11857500  0.34560400  1
  Te  Te21  1  0.73004694  0.09415780  0.57968140  1
  Te  Te22  1  0.26843487  0.88195464  0.40047895  1
  Te  Te23  1  0.28386608  0.85779554  0.65125203  1
  Te  Te24  1  0.38690600  0.74931100  0.27459600  1
  Te  Te25  1  0.37904616  0.73556540  0.52186406  1
  Te  Te26  1  0.61367545  0.25191850  0.46886166  1
  Te  Te27  1  0.63446803  0.24006172  0.71667528  1
  Te  Te28  1  0.18432800  0.21398100  0.29715900  1
  Te  Te29  1  0.19130650  0.20629067  0.54327990  1
  Te  Te30  1  0.81378673  0.78495652  0.44875834  1
  Te  Te31  1  0.82232971  0.75259236  0.69725910  1
  H  H32  1  0.46275595  0.61270994  0.73663204  1
