# generated using pymatgen
data_Ag27H
_symmetry_space_group_name_H-M   'P 1'
_cell_length_a   8.60496519
_cell_length_b   8.60496881
_cell_length_c   23.47925300
_cell_angle_alpha   90.00483404
_cell_angle_beta   93.49762144
_cell_angle_gamma   119.99565775
_symmetry_Int_Tables_number   1
_chemical_formula_structural   Ag27H
_chemical_formula_sum   'Ag27 H1'
_cell_volume   1501.93330901
_cell_formula_units_Z   1
loop_
 _symmetry_equiv_pos_site_id
 _symmetry_equiv_pos_as_xyz
  1  'x, y, z'
loop_
 _atom_site_type_symbol
 _atom_site_label
 _atom_site_symmetry_multiplicity
 _atom_site_fract_x
 _atom_site_fract_y
 _atom_site_fract_z
 _atom_site_occupancy
  Ag  Ag0  1  0.20000000  0.26666700  0.40000000  1
  Ag  Ag1  1  0.20000000  0.60000000  0.40000000  1
  Ag  Ag2  1  0.20000000  0.93333300  0.40000000  1
  Ag  Ag3  1  0.53333300  0.26666700  0.40000000  1
  Ag  Ag4  1  0.53333300  0.60000000  0.40000000  1
  Ag  Ag5  1  0.53333300  0.93333300  0.40000000  1
  Ag  Ag6  1  0.86666700  0.26666700  0.40000000  1
  Ag  Ag7  1  0.86666700  0.60000000  0.40000000  1
  Ag  Ag8  1  0.86666700  0.93333300  0.40000000  1
  Ag  Ag9  1  0.33624393  0.16743711  0.50151279  1
  Ag  Ag10  1  0.33624830  0.50208830  0.50151202  1
  Ag  Ag11  1  0.33620129  0.83475376  0.50229946  1
  Ag  Ag12  1  0.66946704  0.16810133  0.50228549  1
  Ag  Ag13  1  0.66730328  0.50030320  0.50235533  1
  Ag  Ag14  1  0.66947418  0.83467183  0.50228440  1
  Ag  Ag15  1  0.00184786  0.16756368  0.50148669  1
  Ag  Ag16  1  0.00376964  0.50040339  0.50237801  1
  Ag  Ag17  1  0.00376341  0.83665945  0.50237769  1
  Ag  Ag18  1  0.13618372  0.06499058  0.60543738  1
  Ag  Ag19  1  0.13615617  0.40446880  0.60542998  1
  Ag  Ag20  1  0.13766883  0.73549085  0.60391615  1
  Ag  Ag21  1  0.47193791  0.06813558  0.60422658  1
  Ag  Ag22  1  0.47587108  0.40455485  0.60550257  1
  Ag  Ag23  1  0.47193399  0.73705031  0.60421520  1
  Ag  Ag24  1  0.80299675  0.06813315  0.60414358  1
  Ag  Ag25  1  0.80458737  0.40229968  0.60392900  1
  Ag  Ag26  1  0.80460464  0.73557593  0.60392355  1
  H  H27  1  0.25752254  0.29541048  0.64187457  1
