# generated using pymatgen
data_Ag27HCO
_symmetry_space_group_name_H-M   'P 1'
_cell_length_a   8.60496519
_cell_length_b   8.60496881
_cell_length_c   23.47925300
_cell_angle_alpha   90.00483404
_cell_angle_beta   93.49762144
_cell_angle_gamma   119.99565775
_symmetry_Int_Tables_number   1
_chemical_formula_structural   Ag27HCO
_chemical_formula_sum   'Ag27 H1 C1 O1'
_cell_volume   1501.93330901
_cell_formula_units_Z   1
loop_
 _symmetry_equiv_pos_site_id
 _symmetry_equiv_pos_as_xyz
  1  'x, y, z'
loop_
 _atom_site_type_symbol
 _atom_site_label
 _atom_site_symmetry_multiplicity
 _atom_site_fract_x
 _atom_site_fract_y
 _atom_site_fract_z
 _atom_site_occupancy
  Ag  Ag0  1  0.20000000  0.26666700  0.40000000  1
  Ag  Ag1  1  0.20000000  0.60000000  0.40000000  1
  Ag  Ag2  1  0.20000000  0.93333300  0.40000000  1
  Ag  Ag3  1  0.53333300  0.26666700  0.40000000  1
  Ag  Ag4  1  0.53333300  0.60000000  0.40000000  1
  Ag  Ag5  1  0.53333300  0.93333300  0.40000000  1
  Ag  Ag6  1  0.86666700  0.26666700  0.40000000  1
  Ag  Ag7  1  0.86666700  0.60000000  0.40000000  1
  Ag  Ag8  1  0.86666700  0.93333300  0.40000000  1
  Ag  Ag9  1  0.33935175  0.17019507  0.50182834  1
  Ag  Ag10  1  0.33931926  0.50169674  0.50175981  1
  Ag  Ag11  1  0.33993723  0.83626068  0.50227837  1
  Ag  Ag12  1  0.67389017  0.17046103  0.50232479  1
  Ag  Ag13  1  0.67315705  0.50298317  0.50186761  1
  Ag  Ag14  1  0.67384476  0.83608637  0.50232614  1
  Ag  Ag15  1  0.00757364  0.17005104  0.50208721  1
  Ag  Ag16  1  0.00947867  0.50207409  0.50322071  1
  Ag  Ag17  1  0.00962819  0.84039281  0.50335441  1
  Ag  Ag18  1  0.14215754  0.06720779  0.60778595  1
  Ag  Ag19  1  0.14102432  0.40777100  0.60729022  1
  Ag  Ag20  1  0.14569881  0.73943193  0.60466946  1
  Ag  Ag21  1  0.47863055  0.07178956  0.60368579  1
  Ag  Ag22  1  0.49492068  0.41348471  0.60400611  1
  Ag  Ag23  1  0.47845758  0.73892931  0.60365385  1
  Ag  Ag24  1  0.80916842  0.07078582  0.60390690  1
  Ag  Ag25  1  0.81447219  0.40594319  0.60407528  1
  Ag  Ag26  1  0.81478773  0.74140684  0.60416816  1
  C  C27  1  0.28881153  0.31293321  0.66168123  1
  H  H28  1  0.41675965  0.37325084  0.73726061  1
  O  O29  1  0.29422673  0.31684697  0.71689006  1
