# generated using pymatgen
data_Ag27HO2
_symmetry_space_group_name_H-M   'P 1'
_cell_length_a   8.60517300
_cell_length_b   8.60496305
_cell_length_c   24.34014600
_cell_angle_alpha   89.99904118
_cell_angle_beta   89.99896131
_cell_angle_gamma   90.00613242
_symmetry_Int_Tables_number   1
_chemical_formula_structural   Ag27HO2
_chemical_formula_sum   'Ag27 H1 O2'
_cell_volume   1802.31954385
_cell_formula_units_Z   1
loop_
 _symmetry_equiv_pos_site_id
 _symmetry_equiv_pos_as_xyz
  1  'x, y, z'
loop_
 _atom_site_type_symbol
 _atom_site_label
 _atom_site_symmetry_multiplicity
 _atom_site_fract_x
 _atom_site_fract_y
 _atom_site_fract_z
 _atom_site_occupancy
  Ag  Ag0  1  0.33333300  0.00000000  0.45833300  1
  Ag  Ag1  1  0.33333300  0.33333300  0.45833300  1
  Ag  Ag2  1  0.33333300  0.66666700  0.45833300  1
  Ag  Ag3  1  0.66666700  0.00000000  0.45833300  1
  Ag  Ag4  1  0.66666700  0.33333300  0.45833300  1
  Ag  Ag5  1  0.66666700  0.66666700  0.45833300  1
  Ag  Ag6  1  0.00000000  0.00000000  0.45833300  1
  Ag  Ag7  1  0.00000000  0.33333300  0.45833300  1
  Ag  Ag8  1  0.00000000  0.66666700  0.45833300  1
  Ag  Ag9  1  0.33283252  0.99971831  0.62918899  1
  Ag  Ag10  1  0.32613237  0.33484754  0.63090285  1
  Ag  Ag11  1  0.33320241  0.67009866  0.62866789  1
  Ag  Ag12  1  0.66667713  0.99935172  0.62891403  1
  Ag  Ag13  1  0.66256196  0.33358966  0.63035656  1
  Ag  Ag14  1  0.66679375  0.66751999  0.62878417  1
  Ag  Ag15  1  0.99874954  0.99937979  0.62877484  1
  Ag  Ag16  1  0.99301037  0.33309538  0.62910212  1
  Ag  Ag17  1  0.99982147  0.66648659  0.62886956  1
  Ag  Ag18  1  0.16618219  0.16784169  0.54399970  1
  Ag  Ag19  1  0.16709379  0.49837881  0.54424070  1
  Ag  Ag20  1  0.16615376  0.83390152  0.54361615  1
  Ag  Ag21  1  0.49846785  0.16749068  0.54395826  1
  Ag  Ag22  1  0.49824727  0.49922286  0.54409485  1
  Ag  Ag23  1  0.49988911  0.83400339  0.54364033  1
  Ag  Ag24  1  0.83131202  0.16693629  0.54392268  1
  Ag  Ag25  1  0.83156196  0.49977500  0.54389507  1
  Ag  Ag26  1  0.83362595  0.83295479  0.54339735  1
  O  O27  1  0.39371926  0.29310460  0.71652009  1
  O  O28  1  0.29857699  0.40149046  0.75000583  1
  H  H29  1  0.36934660  0.49078710  0.75415870  1
