# generated using pymatgen
data_Ag27H
_symmetry_space_group_name_H-M   'P 1'
_cell_length_a   8.60517300
_cell_length_b   8.60496305
_cell_length_c   24.34014600
_cell_angle_alpha   89.99904118
_cell_angle_beta   89.99896131
_cell_angle_gamma   90.00613242
_symmetry_Int_Tables_number   1
_chemical_formula_structural   Ag27H
_chemical_formula_sum   'Ag27 H1'
_cell_volume   1802.31954385
_cell_formula_units_Z   1
loop_
 _symmetry_equiv_pos_site_id
 _symmetry_equiv_pos_as_xyz
  1  'x, y, z'
loop_
 _atom_site_type_symbol
 _atom_site_label
 _atom_site_symmetry_multiplicity
 _atom_site_fract_x
 _atom_site_fract_y
 _atom_site_fract_z
 _atom_site_occupancy
  Ag  Ag0  1  0.33333300  0.00000000  0.45833300  1
  Ag  Ag1  1  0.33333300  0.33333300  0.45833300  1
  Ag  Ag2  1  0.33333300  0.66666700  0.45833300  1
  Ag  Ag3  1  0.66666700  0.00000000  0.45833300  1
  Ag  Ag4  1  0.66666700  0.33333300  0.45833300  1
  Ag  Ag5  1  0.66666700  0.66666700  0.45833300  1
  Ag  Ag6  1  0.00000000  0.00000000  0.45833300  1
  Ag  Ag7  1  0.00000000  0.33333300  0.45833300  1
  Ag  Ag8  1  0.00000000  0.66666700  0.45833300  1
  Ag  Ag9  1  0.33335235  0.99825179  0.62912233  1
  Ag  Ag10  1  0.33336215  0.33336265  0.63562725  1
  Ag  Ag11  1  0.33335257  0.66840336  0.62911316  1
  Ag  Ag12  1  0.66710972  0.99950471  0.62918182  1
  Ag  Ag13  1  0.66840350  0.33335292  0.62911282  1
  Ag  Ag14  1  0.66711100  0.66711139  0.62917242  1
  Ag  Ag15  1  0.99950393  0.99950488  0.62918630  1
  Ag  Ag16  1  0.99825069  0.33335270  0.62912143  1
  Ag  Ag17  1  0.99950374  0.66711018  0.62918129  1
  Ag  Ag18  1  0.16833963  0.16833899  0.54448517  1
  Ag  Ag19  1  0.16833642  0.49833779  0.54447207  1
  Ag  Ag20  1  0.16615105  0.83335965  0.54378692  1
  Ag  Ag21  1  0.49833699  0.16833579  0.54447228  1
  Ag  Ag22  1  0.49833639  0.49833694  0.54445925  1
  Ag  Ag23  1  0.50046046  0.83336093  0.54377658  1
  Ag  Ag24  1  0.83335901  0.16615095  0.54378669  1
  Ag  Ag25  1  0.83336019  0.50046079  0.54377614  1
  Ag  Ag26  1  0.83334090  0.83334161  0.54359965  1
  H  H27  1  0.33335714  0.33335663  0.70596252  1
