# generated using pymatgen
data_Fe4Te16Mo12HN2
_symmetry_space_group_name_H-M   'P 1'
_cell_length_a   7.22312727
_cell_length_b   7.08682392
_cell_length_c   29.37250900
_cell_angle_alpha   91.57772794
_cell_angle_beta   98.12045943
_cell_angle_gamma   93.99332592
_symmetry_Int_Tables_number   1
_chemical_formula_structural   Fe4Te16Mo12HN2
_chemical_formula_sum   'Fe4 Te16 Mo12 H1 N2'
_cell_volume   1483.79736813
_cell_formula_units_Z   1
loop_
 _symmetry_equiv_pos_site_id
 _symmetry_equiv_pos_as_xyz
  1  'x, y, z'
loop_
 _atom_site_type_symbol
 _atom_site_label
 _atom_site_symmetry_multiplicity
 _atom_site_fract_x
 _atom_site_fract_y
 _atom_site_fract_z
 _atom_site_occupancy
  Fe  Fe0  1  0.94703897  0.13798052  0.46969342  1
  Fe  Fe1  1  0.85469678  0.09363217  0.66507303  1
  Fe  Fe2  1  0.05693100  0.86054300  0.27656700  1
  Fe  Fe3  1  0.05313379  0.86060703  0.52220182  1
  Mo  Mo4  1  0.24912480  0.55205226  0.34890849  1
  Mo  Mo5  1  0.25073275  0.53529089  0.59721228  1
  Mo  Mo6  1  0.75204179  0.45131812  0.39635404  1
  Mo  Mo7  1  0.76452616  0.43389592  0.64073079  1
  Mo  Mo8  1  0.41615143  0.24949535  0.38202433  1
  Mo  Mo9  1  0.42593568  0.22857945  0.62841244  1
  Mo  Mo10  1  0.57917071  0.75253889  0.36264485  1
  Mo  Mo11  1  0.58563002  0.74036300  0.60943360  1
  Mo  Mo12  1  0.53260700  0.41261200  0.31013000  1
  Mo  Mo13  1  0.53593821  0.40967093  0.55605858  1
  Mo  Mo14  1  0.46570722  0.58842259  0.43601628  1
  Mo  Mo15  1  0.47742117  0.56984665  0.68480271  1
  Te  Te16  1  0.13183957  0.38192933  0.42672066  1
  Te  Te17  1  0.14149968  0.35168437  0.67609318  1
  Te  Te18  1  0.86624900  0.61870000  0.31855000  1
  Te  Te19  1  0.87335721  0.61488902  0.56523061  1
  Te  Te20  1  0.73106900  0.11857500  0.34560400  1
  Te  Te21  1  0.72556449  0.09727066  0.58073360  1
  Te  Te22  1  0.26843383  0.88205555  0.40067022  1
  Te  Te23  1  0.27788415  0.86259331  0.65064606  1
  Te  Te24  1  0.38690600  0.74931100  0.27459600  1
  Te  Te25  1  0.38059770  0.73805119  0.52200564  1
  Te  Te26  1  0.61328832  0.25288486  0.46915935  1
  Te  Te27  1  0.63156215  0.23133544  0.71459786  1
  Te  Te28  1  0.18432800  0.21398100  0.29715900  1
  Te  Te29  1  0.19110471  0.20892474  0.54355649  1
  Te  Te30  1  0.81242480  0.78526905  0.44876084  1
  Te  Te31  1  0.82698331  0.75696019  0.69695122  1
  N  N32  1  0.49179777  0.61105467  0.74960687  1
  N  N33  1  0.49551850  0.63874804  0.79037042  1
  H  H34  1  0.58109095  0.55583909  0.81227539  1
