# generated using pymatgen
data_Fe4Te16Mo12HN2
_symmetry_space_group_name_H-M   'P 1'
_cell_length_a   7.22312727
_cell_length_b   7.08682392
_cell_length_c   29.37250900
_cell_angle_alpha   91.57772794
_cell_angle_beta   98.12045943
_cell_angle_gamma   93.99332592
_symmetry_Int_Tables_number   1
_chemical_formula_structural   Fe4Te16Mo12HN2
_chemical_formula_sum   'Fe4 Te16 Mo12 H1 N2'
_cell_volume   1483.79736813
_cell_formula_units_Z   1
loop_
 _symmetry_equiv_pos_site_id
 _symmetry_equiv_pos_as_xyz
  1  'x, y, z'
loop_
 _atom_site_type_symbol
 _atom_site_label
 _atom_site_symmetry_multiplicity
 _atom_site_fract_x
 _atom_site_fract_y
 _atom_site_fract_z
 _atom_site_occupancy
  Fe  Fe0  1  0.94110738  0.13355364  0.46511865  1
  Fe  Fe1  1  0.87818988  0.12136889  0.69340321  1
  Fe  Fe2  1  0.05693100  0.86054300  0.27656700  1
  Fe  Fe3  1  0.04751116  0.85986966  0.52310062  1
  Mo  Mo4  1  0.24910021  0.55201107  0.34829424  1
  Mo  Mo5  1  0.23105235  0.54492164  0.59195161  1
  Mo  Mo6  1  0.75177721  0.45072505  0.39639991  1
  Mo  Mo7  1  0.73333852  0.43819667  0.64047800  1
  Mo  Mo8  1  0.41526771  0.24847451  0.38177965  1
  Mo  Mo9  1  0.39953477  0.23872724  0.62560266  1
  Mo  Mo10  1  0.57853393  0.75252865  0.36258125  1
  Mo  Mo11  1  0.57105647  0.74421410  0.60758223  1
  Mo  Mo12  1  0.53260700  0.41261200  0.31013000  1
  Mo  Mo13  1  0.52347071  0.40549193  0.55345535  1
  Mo  Mo14  1  0.46414286  0.58730900  0.43566771  1
  Mo  Mo15  1  0.45058443  0.57308420  0.67504622  1
  Te  Te16  1  0.13123463  0.38325592  0.42558203  1
  Te  Te17  1  0.11601750  0.38122184  0.67143620  1
  Te  Te18  1  0.86624900  0.61870000  0.31855000  1
  Te  Te19  1  0.85482331  0.61450281  0.56395059  1
  Te  Te20  1  0.73106900  0.11857500  0.34560400  1
  Te  Te21  1  0.72120831  0.10681486  0.58985383  1
  Te  Te22  1  0.26747179  0.88188233  0.39977311  1
  Te  Te23  1  0.25595161  0.87477385  0.64629278  1
  Te  Te24  1  0.38690600  0.74931100  0.27459600  1
  Te  Te25  1  0.37663120  0.74554582  0.51990559  1
  Te  Te26  1  0.61205032  0.24881345  0.46925966  1
  Te  Te27  1  0.57837478  0.25202880  0.71463246  1
  Te  Te28  1  0.18432800  0.21398100  0.29715900  1
  Te  Te29  1  0.17281787  0.21469207  0.53924902  1
  Te  Te30  1  0.81372366  0.78050710  0.44914603  1
  Te  Te31  1  0.79315805  0.75535813  0.69772792  1
  N  N32  1  0.96518770  0.11646404  0.75121541  1
  N  N33  1  0.94458030  0.11465146  0.79083315  1
  H  H34  1  0.05755378  0.10169523  0.81666873  1
