# generated using pymatgen
data_Fe4Mo12H(Se8N)2
_symmetry_space_group_name_H-M   'P 1'
_cell_length_a   6.73059675
_cell_length_b   6.68252955
_cell_length_c   28.41042900
_cell_angle_alpha   94.71078376
_cell_angle_beta   91.18717718
_cell_angle_gamma   96.76332947
_symmetry_Int_Tables_number   1
_chemical_formula_structural   Fe4Mo12H(Se8N)2
_chemical_formula_sum   'Fe4 Mo12 H1 Se16 N2'
_cell_volume   1264.05235895
_cell_formula_units_Z   1
loop_
 _symmetry_equiv_pos_site_id
 _symmetry_equiv_pos_as_xyz
  1  'x, y, z'
loop_
 _atom_site_type_symbol
 _atom_site_label
 _atom_site_symmetry_multiplicity
 _atom_site_fract_x
 _atom_site_fract_y
 _atom_site_fract_z
 _atom_site_occupancy
  Fe  Fe0  1  0.92578993  0.14992440  0.47957363  1
  Fe  Fe1  1  0.83032587  0.09834048  0.64858916  1
  Fe  Fe2  1  0.08366100  0.85003700  0.25310200  1
  Fe  Fe3  1  0.10044975  0.85686279  0.48311134  1
  Mo  Mo4  1  0.23154077  0.53743494  0.34784873  1
  Mo  Mo5  1  0.23020589  0.52932134  0.58600187  1
  Mo  Mo6  1  0.76848336  0.46047712  0.38771178  1
  Mo  Mo7  1  0.76734424  0.45165370  0.62417249  1
  Mo  Mo8  1  0.41108278  0.22840743  0.37744146  1
  Mo  Mo9  1  0.40670925  0.21806851  0.61580853  1
  Mo  Mo10  1  0.59150923  0.77319541  0.35835444  1
  Mo  Mo11  1  0.58910543  0.76479327  0.59567827  1
  Mo  Mo12  1  0.54876300  0.41297700  0.30450800  1
  Mo  Mo13  1  0.54750214  0.40857231  0.54159212  1
  Mo  Mo14  1  0.44994602  0.58686194  0.43216683  1
  Mo  Mo15  1  0.44803613  0.58519858  0.67291933  1
  Se  Se16  1  0.11629436  0.36181300  0.42354791  1
  Se  Se17  1  0.11468924  0.35420524  0.66203391  1
  Se  Se18  1  0.88453700  0.63734700  0.31138600  1
  Se  Se19  1  0.88495538  0.63300476  0.54935061  1
  Se  Se20  1  0.73366430  0.13557415  0.33436393  1
  Se  Se21  1  0.72970438  0.11667861  0.56707929  1
  Se  Se22  1  0.26052073  0.86634186  0.39981036  1
  Se  Se23  1  0.26562900  0.85514224  0.63876952  1
  Se  Se24  1  0.39326800  0.73478000  0.28166600  1
  Se  Se25  1  0.38737623  0.72437740  0.51923398  1
  Se  Se26  1  0.60718024  0.26506126  0.45472914  1
  Se  Se27  1  0.59838967  0.25977907  0.69512929  1
  Se  Se28  1  0.21444700  0.18780600  0.29890600  1
  Se  Se29  1  0.21191497  0.18346268  0.53592208  1
  Se  Se30  1  0.78461205  0.80961798  0.43780753  1
  Se  Se31  1  0.79820791  0.77667125  0.67807454  1
  N  N32  1  0.44114802  0.64050163  0.73994665  1
  N  N33  1  0.44290371  0.66784783  0.78231694  1
  H  H34  1  0.52964429  0.57881629  0.80121203  1
