# generated using pymatgen
data_Fe2Mo12H3S16N
_symmetry_space_group_name_H-M   'P 1'
_cell_length_a   6.45357383
_cell_length_b   6.40729292
_cell_length_c   27.84326400
_cell_angle_alpha   93.27559587
_cell_angle_beta   96.42128096
_cell_angle_gamma   96.53695481
_symmetry_Int_Tables_number   1
_chemical_formula_structural   Fe2Mo12H3S16N
_chemical_formula_sum   'Fe2 Mo12 H3 S16 N1'
_cell_volume   1133.80606000
_cell_formula_units_Z   1
loop_
 _symmetry_equiv_pos_site_id
 _symmetry_equiv_pos_as_xyz
  1  'x, y, z'
loop_
 _atom_site_type_symbol
 _atom_site_label
 _atom_site_symmetry_multiplicity
 _atom_site_fract_x
 _atom_site_fract_y
 _atom_site_fract_z
 _atom_site_occupancy
  Fe  Fe0  1  0.94369339  0.15076059  0.46030309  1
  Fe  Fe1  1  0.86706884  0.09194180  0.64397747  1
  Mo  Mo2  1  0.21324400  0.54241800  0.34209900  1
  Mo  Mo3  1  0.22316826  0.53382774  0.57555675  1
  Mo  Mo4  1  0.79677030  0.45726526  0.38849389  1
  Mo  Mo5  1  0.79018896  0.45050060  0.61677749  1
  Mo  Mo6  1  0.41089688  0.21860187  0.37440062  1
  Mo  Mo7  1  0.41720736  0.20220349  0.60622005  1
  Mo  Mo8  1  0.59439000  0.78338100  0.35611600  1
  Mo  Mo9  1  0.59633277  0.77335178  0.58747888  1
  Mo  Mo10  1  0.53839000  0.41017300  0.30039200  1
  Mo  Mo11  1  0.54446832  0.40963655  0.53093738  1
  Mo  Mo12  1  0.46541395  0.59889961  0.43218906  1
  Mo  Mo13  1  0.47513610  0.56958776  0.66230321  1
  S  S14  1  0.14404365  0.36540889  0.41695017  1
  S  S15  1  0.14374584  0.34704412  0.64870533  1
  S  S16  1  0.86398200  0.63520500  0.31550800  1
  S  S17  1  0.87259341  0.63795349  0.54577092  1
  S  S18  1  0.72141400  0.13929400  0.33709200  1
  S  S19  1  0.72655046  0.12358346  0.56373392  1
  S  S20  1  0.27925332  0.86154072  0.39376117  1
  S  S21  1  0.29000936  0.84821486  0.63009255  1
  S  S22  1  0.37280800  0.72589200  0.28016400  1
  S  S23  1  0.37194263  0.72093405  0.51191905  1
  S  S24  1  0.62613564  0.27291034  0.45168770  1
  S  S25  1  0.63857291  0.25884477  0.68511704  1
  S  S26  1  0.19164500  0.20201400  0.29537700  1
  S  S27  1  0.19725328  0.20041841  0.52645616  1
  S  S28  1  0.81529512  0.80336723  0.43567464  1
  S  S29  1  0.81825330  0.76882508  0.66915096  1
  N  N30  1  0.45250069  0.63016585  0.74199825  1
  H  H31  1  0.59888563  0.67070950  0.76127455  1
  H  H32  1  0.36298110  0.74637762  0.75072617  1
  H  H33  1  0.38899082  0.49538321  0.75621341  1
