# generated using pymatgen
data_Mo12CSe16O
_symmetry_space_group_name_H-M   'P 1'
_cell_length_a   6.61417350
_cell_length_b   6.61583473
_cell_length_c   28.23028900
_cell_angle_alpha   91.53841057
_cell_angle_beta   91.51120564
_cell_angle_gamma   91.52367391
_symmetry_Int_Tables_number   1
_chemical_formula_structural   Mo12CSe16O
_chemical_formula_sum   'Mo12 Se16 C1 O1'
_cell_volume   1233.97341125
_cell_formula_units_Z   1
loop_
 _symmetry_equiv_pos_site_id
 _symmetry_equiv_pos_as_xyz
  1  'x, y, z'
loop_
 _atom_site_type_symbol
 _atom_site_label
 _atom_site_symmetry_multiplicity
 _atom_site_fract_x
 _atom_site_fract_y
 _atom_site_fract_z
 _atom_site_occupancy
  Mo  Mo0  1  0.22064400  0.54530100  0.34680900  1
  Mo  Mo1  1  0.22408110  0.54123441  0.58261450  1
  Mo  Mo2  1  0.77288307  0.45331198  0.38694065  1
  Mo  Mo3  1  0.77749595  0.44405060  0.62143389  1
  Mo  Mo4  1  0.41372132  0.22618932  0.37796128  1
  Mo  Mo5  1  0.42317798  0.20969082  0.61214215  1
  Mo  Mo6  1  0.57843386  0.77479813  0.35703406  1
  Mo  Mo7  1  0.58441348  0.77314587  0.59142835  1
  Mo  Mo8  1  0.54531000  0.41281400  0.30171000  1
  Mo  Mo9  1  0.54460295  0.41282320  0.53691736  1
  Mo  Mo10  1  0.44992727  0.58510465  0.43317194  1
  Mo  Mo11  1  0.45394950  0.56957130  0.66757422  1
  Se  Se12  1  0.12292865  0.37775020  0.42609535  1
  Se  Se13  1  0.12508069  0.36100793  0.65945068  1
  Se  Se14  1  0.87245300  0.62115500  0.30846200  1
  Se  Se15  1  0.87415620  0.62048426  0.54354573  1
  Se  Se16  1  0.75031900  0.12757300  0.33876000  1
  Se  Se17  1  0.75177996  0.12078528  0.57046611  1
  Se  Se18  1  0.24470998  0.87266701  0.39668124  1
  Se  Se19  1  0.25490165  0.86420045  0.63475367  1
  Se  Se20  1  0.37880700  0.75023000  0.27992500  1
  Se  Se21  1  0.37463672  0.74893249  0.51511875  1
  Se  Se22  1  0.62018661  0.24934352  0.45467740  1
  Se  Se23  1  0.62283778  0.24014927  0.68953594  1
  Se  Se24  1  0.21114700  0.21116100  0.29951300  1
  Se  Se25  1  0.21212241  0.20445939  0.53548242  1
  Se  Se26  1  0.78250353  0.78616266  0.43522756  1
  Se  Se27  1  0.78226456  0.78174543  0.66911709  1
  O  O28  1  0.43130147  0.62144592  0.77961153  1
  C  C29  1  0.43657560  0.61124173  0.73829203  1
