# generated using pymatgen
data_HPd27O2
_symmetry_space_group_name_H-M   'P 1'
_cell_length_a   8.25688963
_cell_length_b   8.25682385
_cell_length_c   22.52889700
_cell_angle_alpha   86.49742100
_cell_angle_beta   86.49797035
_cell_angle_gamma   59.99972739
_symmetry_Int_Tables_number   1
_chemical_formula_structural   HPd27O2
_chemical_formula_sum   'Pd27 H1 O2'
_cell_volume   1326.83127031
_cell_formula_units_Z   1
loop_
 _symmetry_equiv_pos_site_id
 _symmetry_equiv_pos_as_xyz
  1  'x, y, z'
loop_
 _atom_site_type_symbol
 _atom_site_label
 _atom_site_symmetry_multiplicity
 _atom_site_fract_x
 _atom_site_fract_y
 _atom_site_fract_z
 _atom_site_occupancy
  Pd  Pd0  1  0.06666700  0.06666600  0.40000000  1
  Pd  Pd1  1  0.06666700  0.39999900  0.40000000  1
  Pd  Pd2  1  0.06666700  0.73333300  0.40000000  1
  Pd  Pd3  1  0.40000000  0.06666600  0.40000000  1
  Pd  Pd4  1  0.40000000  0.39999900  0.40000000  1
  Pd  Pd5  1  0.40000000  0.73333300  0.40000000  1
  Pd  Pd6  1  0.73333300  0.06666600  0.40000000  1
  Pd  Pd7  1  0.73333300  0.39999900  0.40000000  1
  Pd  Pd8  1  0.73333300  0.73333300  0.40000000  1
  Pd  Pd9  1  0.16698546  0.16729330  0.50025092  1
  Pd  Pd10  1  0.16671505  0.50136718  0.50031106  1
  Pd  Pd11  1  0.16651811  0.83461906  0.50071641  1
  Pd  Pd12  1  0.49956784  0.16842797  0.50023818  1
  Pd  Pd13  1  0.50032439  0.50226884  0.50184351  1
  Pd  Pd14  1  0.50035911  0.83305488  0.50138098  1
  Pd  Pd15  1  0.83262453  0.16806626  0.50043913  1
  Pd  Pd16  1  0.83268518  0.50174467  0.50038351  1
  Pd  Pd17  1  0.83317081  0.83455206  0.50031784  1
  Pd  Pd18  1  0.26584488  0.26896466  0.60083563  1
  Pd  Pd19  1  0.26485640  0.60251891  0.60141397  1
  Pd  Pd20  1  0.26549248  0.93584713  0.60182799  1
  Pd  Pd21  1  0.59905507  0.26881035  0.60137532  1
  Pd  Pd22  1  0.59927389  0.60273110  0.60399248  1
  Pd  Pd23  1  0.59929228  0.93722811  0.60044935  1
  Pd  Pd24  1  0.93418291  0.26737353  0.60038751  1
  Pd  Pd25  1  0.93350329  0.60251956  0.60083051  1
  Pd  Pd26  1  0.93242466  0.93577348  0.60109708  1
  O  O27  1  0.64530950  0.56075155  0.69017562  1
  O  O28  1  0.48608390  0.67696872  0.72486489  1
  H  H29  1  0.52408602  0.75753945  0.74473448  1
