# generated using pymatgen
data_Fe2Mo12H3S16N
_symmetry_space_group_name_H-M   'P 1'
_cell_length_a   6.45357383
_cell_length_b   6.40729292
_cell_length_c   27.84326400
_cell_angle_alpha   93.27559587
_cell_angle_beta   96.42128096
_cell_angle_gamma   96.53695481
_symmetry_Int_Tables_number   1
_chemical_formula_structural   Fe2Mo12H3S16N
_chemical_formula_sum   'Fe2 Mo12 H3 S16 N1'
_cell_volume   1133.80606000
_cell_formula_units_Z   1
loop_
 _symmetry_equiv_pos_site_id
 _symmetry_equiv_pos_as_xyz
  1  'x, y, z'
loop_
 _atom_site_type_symbol
 _atom_site_label
 _atom_site_symmetry_multiplicity
 _atom_site_fract_x
 _atom_site_fract_y
 _atom_site_fract_z
 _atom_site_occupancy
  Fe  Fe0  1  0.93773380  0.14993750  0.45773266  1
  Fe  Fe1  1  0.88900529  0.13173093  0.68395408  1
  Mo  Mo2  1  0.21324400  0.54241800  0.34209900  1
  Mo  Mo3  1  0.19697455  0.53840486  0.57286541  1
  Mo  Mo4  1  0.79515121  0.45774129  0.38837466  1
  Mo  Mo5  1  0.76111393  0.44784704  0.61708878  1
  Mo  Mo6  1  0.40991656  0.21902808  0.37430327  1
  Mo  Mo7  1  0.38423164  0.21211295  0.60504230  1
  Mo  Mo8  1  0.59439000  0.78338100  0.35611600  1
  Mo  Mo9  1  0.57336088  0.77667023  0.58592226  1
  Mo  Mo10  1  0.53839000  0.41017300  0.30039200  1
  Mo  Mo11  1  0.52252395  0.40836438  0.52955014  1
  Mo  Mo12  1  0.46082333  0.59946034  0.43223440  1
  Mo  Mo13  1  0.44305008  0.58464096  0.65899575  1
  S  S14  1  0.14201779  0.36436380  0.41625689  1
  S  S15  1  0.11574071  0.35693580  0.64834289  1
  S  S16  1  0.86398200  0.63520500  0.31550800  1
  S  S17  1  0.84736421  0.63469710  0.54555237  1
  S  S18  1  0.72141400  0.13929400  0.33709200  1
  S  S19  1  0.69735971  0.13206402  0.56591575  1
  S  S20  1  0.27767599  0.86235225  0.39314064  1
  S  S21  1  0.25890078  0.85650482  0.62613716  1
  S  S22  1  0.37280800  0.72589200  0.28016400  1
  S  S23  1  0.35384906  0.72241478  0.51015700  1
  S  S24  1  0.62275500  0.27446851  0.45175690  1
  S  S25  1  0.58915669  0.27400905  0.68439079  1
  S  S26  1  0.19164500  0.20201400  0.29537700  1
  S  S27  1  0.17397737  0.20038270  0.52514245  1
  S  S28  1  0.81194632  0.80139200  0.43623156  1
  S  S29  1  0.78825797  0.78314028  0.66594623  1
  N  N30  1  0.99344796  0.14005349  0.75690833  1
  H  H31  1  0.15337712  0.14357381  0.76551285  1
  H  H32  1  0.95090615  0.26907173  0.77561668  1
  H  H33  1  0.92566566  0.00940616  0.77185100  1
