# generated using pymatgen
data_Ag26HPtO
_symmetry_space_group_name_H-M   'P 1'
_cell_length_a   8.60496519
_cell_length_b   8.60496881
_cell_length_c   23.47925300
_cell_angle_alpha   90.00483404
_cell_angle_beta   93.49762144
_cell_angle_gamma   119.99565775
_symmetry_Int_Tables_number   1
_chemical_formula_structural   Ag26HPtO
_chemical_formula_sum   'Ag26 H1 Pt1 O1'
_cell_volume   1501.93330901
_cell_formula_units_Z   1
loop_
 _symmetry_equiv_pos_site_id
 _symmetry_equiv_pos_as_xyz
  1  'x, y, z'
loop_
 _atom_site_type_symbol
 _atom_site_label
 _atom_site_symmetry_multiplicity
 _atom_site_fract_x
 _atom_site_fract_y
 _atom_site_fract_z
 _atom_site_occupancy
  Ag  Ag0  1  0.20000000  0.26666700  0.40000000  1
  Ag  Ag1  1  0.20000000  0.60000000  0.40000000  1
  Ag  Ag2  1  0.20000000  0.93333300  0.40000000  1
  Ag  Ag3  1  0.53333300  0.26666700  0.40000000  1
  Ag  Ag4  1  0.53333300  0.60000000  0.40000000  1
  Ag  Ag5  1  0.53333300  0.93333300  0.40000000  1
  Ag  Ag6  1  0.86666700  0.26666700  0.40000000  1
  Ag  Ag7  1  0.86666700  0.60000000  0.40000000  1
  Ag  Ag8  1  0.86666700  0.93333300  0.40000000  1
  Ag  Ag9  1  0.33517026  0.16876371  0.50181094  1
  Ag  Ag10  1  0.33517250  0.49976255  0.50181072  1
  Ag  Ag11  1  0.33322272  0.83329251  0.50337460  1
  Ag  Ag12  1  0.66673741  0.16644201  0.50272478  1
  Ag  Ag13  1  0.66466123  0.49901568  0.50221552  1
  Ag  Ag14  1  0.66674734  0.83365423  0.50272797  1
  Ag  Ag15  1  0.00012882  0.16673980  0.50271709  1
  Ag  Ag16  1  0.00101854  0.50025674  0.50301704  1
  Ag  Ag17  1  0.00102624  0.83412836  0.50301802  1
  Ag  Ag18  1  0.13279108  0.06560066  0.60415048  1
  Ag  Ag19  1  0.13280011  0.40055343  0.60414634  1
  Ag  Ag20  1  0.13468440  0.73402788  0.60513602  1
  Ag  Ag21  1  0.46823864  0.06759570  0.60493757  1
  Ag  Ag22  1  0.46824510  0.73402026  0.60493216  1
  Ag  Ag23  1  0.80114363  0.06725016  0.60480056  1
  Ag  Ag24  1  0.80029110  0.40068270  0.60499988  1
  Ag  Ag25  1  0.80027232  0.73296617  0.60500943  1
  Pt  Pt26  1  0.46821056  0.40078156  0.59946975  1
  O  O27  1  0.40874768  0.37113223  0.68342724  1
  H  H28  1  0.52374863  0.42864121  0.70682155  1
