# generated using pymatgen
data_Mo12HSe16
_symmetry_space_group_name_H-M   'P 1'
_cell_length_a   6.61417350
_cell_length_b   6.61583473
_cell_length_c   28.23028900
_cell_angle_alpha   91.53841057
_cell_angle_beta   91.51120564
_cell_angle_gamma   91.52367391
_symmetry_Int_Tables_number   1
_chemical_formula_structural   Mo12HSe16
_chemical_formula_sum   'Mo12 H1 Se16'
_cell_volume   1233.97341125
_cell_formula_units_Z   1
loop_
 _symmetry_equiv_pos_site_id
 _symmetry_equiv_pos_as_xyz
  1  'x, y, z'
loop_
 _atom_site_type_symbol
 _atom_site_label
 _atom_site_symmetry_multiplicity
 _atom_site_fract_x
 _atom_site_fract_y
 _atom_site_fract_z
 _atom_site_occupancy
  Mo  Mo0  1  0.22064400  0.54530100  0.34680900  1
  Mo  Mo1  1  0.21566475  0.54343235  0.58183275  1
  Mo  Mo2  1  0.77112792  0.45333786  0.38701763  1
  Mo  Mo3  1  0.78457429  0.44134881  0.62304228  1
  Mo  Mo4  1  0.41362700  0.22855717  0.37842897  1
  Mo  Mo5  1  0.42000366  0.20351070  0.61243307  1
  Mo  Mo6  1  0.57804042  0.77406334  0.35720771  1
  Mo  Mo7  1  0.58234412  0.78236137  0.59106881  1
  Mo  Mo8  1  0.54531000  0.41281400  0.30171000  1
  Mo  Mo9  1  0.54018335  0.41440384  0.53846190  1
  Mo  Mo10  1  0.44803740  0.58655960  0.43349117  1
  Mo  Mo11  1  0.46410951  0.56742961  0.66457419  1
  Se  Se12  1  0.12159677  0.37891133  0.42630472  1
  Se  Se13  1  0.13258777  0.36595898  0.65963885  1
  Se  Se14  1  0.87245300  0.62115500  0.30846200  1
  Se  Se15  1  0.86879096  0.62157978  0.54499846  1
  Se  Se16  1  0.75031900  0.12757300  0.33876000  1
  Se  Se17  1  0.75034718  0.12193771  0.57165897  1
  Se  Se18  1  0.24419254  0.87381830  0.39668469  1
  Se  Se19  1  0.25706234  0.86239905  0.63487252  1
  Se  Se20  1  0.37880700  0.75023000  0.27992500  1
  Se  Se21  1  0.36923392  0.75244823  0.51574618  1
  Se  Se22  1  0.61948511  0.25311781  0.45573871  1
  Se  Se23  1  0.62540946  0.23536449  0.68923346  1
  Se  Se24  1  0.21114700  0.21116100  0.29951300  1
  Se  Se25  1  0.20406119  0.20608616  0.53672972  1
  Se  Se26  1  0.77982019  0.78533527  0.43609825  1
  Se  Se27  1  0.79321486  0.78165010  0.66712293  1
  H  H28  1  0.44793779  0.62972867  0.72510829  1
