# generated using pymatgen
data_Fe2Mo12HS16
_symmetry_space_group_name_H-M   'P 1'
_cell_length_a   6.45357383
_cell_length_b   6.40729292
_cell_length_c   27.84326400
_cell_angle_alpha   93.27559587
_cell_angle_beta   96.42128096
_cell_angle_gamma   96.53695481
_symmetry_Int_Tables_number   1
_chemical_formula_structural   Fe2Mo12HS16
_chemical_formula_sum   'Fe2 Mo12 H1 S16'
_cell_volume   1133.80606000
_cell_formula_units_Z   1
loop_
 _symmetry_equiv_pos_site_id
 _symmetry_equiv_pos_as_xyz
  1  'x, y, z'
loop_
 _atom_site_type_symbol
 _atom_site_label
 _atom_site_symmetry_multiplicity
 _atom_site_fract_x
 _atom_site_fract_y
 _atom_site_fract_z
 _atom_site_occupancy
  Fe  Fe0  1  0.94040104  0.15416776  0.46286955  1
  Fe  Fe1  1  0.87027606  0.13139591  0.65923417  1
  Mo  Mo2  1  0.21324400  0.54241800  0.34209900  1
  Mo  Mo3  1  0.22538271  0.55196900  0.57654072  1
  Mo  Mo4  1  0.79240518  0.45891655  0.38838461  1
  Mo  Mo5  1  0.79559697  0.47195397  0.61677895  1
  Mo  Mo6  1  0.41009480  0.21932122  0.37485260  1
  Mo  Mo7  1  0.41732225  0.22618331  0.60923683  1
  Mo  Mo8  1  0.59439000  0.78338100  0.35611600  1
  Mo  Mo9  1  0.59831882  0.78732519  0.58821875  1
  Mo  Mo10  1  0.53839000  0.41017300  0.30039200  1
  Mo  Mo11  1  0.54299976  0.42027976  0.53245108  1
  Mo  Mo12  1  0.46238741  0.60146685  0.43265967  1
  Mo  Mo13  1  0.47317144  0.58890387  0.66248862  1
  S  S14  1  0.14177865  0.36484319  0.41777372  1
  S  S15  1  0.14271952  0.37243808  0.65169165  1
  S  S16  1  0.86398200  0.63520500  0.31550800  1
  S  S17  1  0.87273125  0.64963048  0.54588897  1
  S  S18  1  0.72141400  0.13929400  0.33709200  1
  S  S19  1  0.72614518  0.14284776  0.56706521  1
  S  S20  1  0.27798556  0.86190437  0.39356862  1
  S  S21  1  0.29151716  0.86809534  0.63096395  1
  S  S22  1  0.37280800  0.72589200  0.28016400  1
  S  S23  1  0.37491567  0.73381700  0.51263129  1
  S  S24  1  0.62233490  0.27595303  0.45248690  1
  S  S25  1  0.62394173  0.28691001  0.69562094  1
  S  S26  1  0.19164500  0.20201400  0.29537700  1
  S  S27  1  0.19762175  0.21257275  0.52958059  1
  S  S28  1  0.81198059  0.80754306  0.43554256  1
  S  S29  1  0.81477360  0.78862472  0.67199207  1
  H  H30  1  0.50761459  0.16089105  0.72417315  1
