# generated using pymatgen
data_Fe2Mo12HS16
_symmetry_space_group_name_H-M   'P 1'
_cell_length_a   6.45357383
_cell_length_b   6.40729292
_cell_length_c   27.84326400
_cell_angle_alpha   93.27559587
_cell_angle_beta   96.42128096
_cell_angle_gamma   96.53695481
_symmetry_Int_Tables_number   1
_chemical_formula_structural   Fe2Mo12HS16
_chemical_formula_sum   'Fe2 Mo12 H1 S16'
_cell_volume   1133.80606000
_cell_formula_units_Z   1
loop_
 _symmetry_equiv_pos_site_id
 _symmetry_equiv_pos_as_xyz
  1  'x, y, z'
loop_
 _atom_site_type_symbol
 _atom_site_label
 _atom_site_symmetry_multiplicity
 _atom_site_fract_x
 _atom_site_fract_y
 _atom_site_fract_z
 _atom_site_occupancy
  Fe  Fe0  1  0.94050547  0.15226781  0.45983178  1
  Fe  Fe1  1  0.85699967  0.10296057  0.65187135  1
  Mo  Mo2  1  0.21324400  0.54241800  0.34209900  1
  Mo  Mo3  1  0.21061603  0.54107643  0.57425191  1
  Mo  Mo4  1  0.79535407  0.45793912  0.38844009  1
  Mo  Mo5  1  0.77290120  0.45841767  0.61761143  1
  Mo  Mo6  1  0.41083957  0.21980333  0.37457705  1
  Mo  Mo7  1  0.40214745  0.21288998  0.60669048  1
  Mo  Mo8  1  0.59439000  0.78338100  0.35611600  1
  Mo  Mo9  1  0.58324062  0.78007631  0.58796392  1
  Mo  Mo10  1  0.53839000  0.41017300  0.30039200  1
  Mo  Mo11  1  0.53464746  0.41501526  0.53125375  1
  Mo  Mo12  1  0.46358487  0.60055633  0.43223500  1
  Mo  Mo13  1  0.45168669  0.57936192  0.66060001  1
  S  S14  1  0.14297581  0.36576541  0.41691617  1
  S  S15  1  0.12373357  0.35835677  0.64742317  1
  S  S16  1  0.86398200  0.63520500  0.31550800  1
  S  S17  1  0.86002147  0.64443706  0.54638052  1
  S  S18  1  0.72141400  0.13929400  0.33709200  1
  S  S19  1  0.71557300  0.13215245  0.56666201  1
  S  S20  1  0.27851511  0.86263767  0.39344297  1
  S  S21  1  0.26971255  0.85725947  0.62863468  1
  S  S22  1  0.37280800  0.72589200  0.28016400  1
  S  S23  1  0.36534888  0.72703505  0.51127959  1
  S  S24  1  0.62432639  0.27587030  0.45228152  1
  S  S25  1  0.61467642  0.27491977  0.68671647  1
  S  S26  1  0.19164500  0.20201400  0.29537700  1
  S  S27  1  0.18731624  0.20451768  0.52665476  1
  S  S28  1  0.81400911  0.80412724  0.43578346  1
  S  S29  1  0.79298784  0.77439218  0.67053619  1
  H  H30  1  0.99822957  0.08895262  0.69836993  1
