# generated using pymatgen
data_H3Pd27N
_symmetry_space_group_name_H-M   'P 1'
_cell_length_a   8.25688963
_cell_length_b   8.25682385
_cell_length_c   22.52889700
_cell_angle_alpha   86.49742100
_cell_angle_beta   86.49797035
_cell_angle_gamma   59.99972739
_symmetry_Int_Tables_number   1
_chemical_formula_structural   H3Pd27N
_chemical_formula_sum   'Pd27 H3 N1'
_cell_volume   1326.83127031
_cell_formula_units_Z   1
loop_
 _symmetry_equiv_pos_site_id
 _symmetry_equiv_pos_as_xyz
  1  'x, y, z'
loop_
 _atom_site_type_symbol
 _atom_site_label
 _atom_site_symmetry_multiplicity
 _atom_site_fract_x
 _atom_site_fract_y
 _atom_site_fract_z
 _atom_site_occupancy
  Pd  Pd0  1  0.06666700  0.06666600  0.40000000  1
  Pd  Pd1  1  0.06666700  0.39999900  0.40000000  1
  Pd  Pd2  1  0.06666700  0.73333300  0.40000000  1
  Pd  Pd3  1  0.40000000  0.06666600  0.40000000  1
  Pd  Pd4  1  0.40000000  0.39999900  0.40000000  1
  Pd  Pd5  1  0.40000000  0.73333300  0.40000000  1
  Pd  Pd6  1  0.73333300  0.06666600  0.40000000  1
  Pd  Pd7  1  0.73333300  0.39999900  0.40000000  1
  Pd  Pd8  1  0.73333300  0.73333300  0.40000000  1
  Pd  Pd9  1  0.16681625  0.16700438  0.50129309  1
  Pd  Pd10  1  0.16702493  0.49975776  0.50127997  1
  Pd  Pd11  1  0.16638359  0.83352935  0.50140309  1
  Pd  Pd12  1  0.49970794  0.16701708  0.50129169  1
  Pd  Pd13  1  0.50070784  0.50079860  0.50295557  1
  Pd  Pd14  1  0.50068146  0.83171970  0.50277851  1
  Pd  Pd15  1  0.83351690  0.16644800  0.50141463  1
  Pd  Pd16  1  0.83162076  0.50069671  0.50281810  1
  Pd  Pd17  1  0.83352301  0.83361642  0.50136379  1
  Pd  Pd18  1  0.26661348  0.26673044  0.60347771  1
  Pd  Pd19  1  0.26515887  0.60007047  0.60293254  1
  Pd  Pd20  1  0.26503536  0.93515948  0.60268598  1
  Pd  Pd21  1  0.59997244  0.26524979  0.60285614  1
  Pd  Pd22  1  0.59946542  0.59968743  0.60864769  1
  Pd  Pd23  1  0.59996577  0.93522956  0.60273374  1
  Pd  Pd24  1  0.93490551  0.26524538  0.60284674  1
  Pd  Pd25  1  0.93520821  0.60005805  0.60264293  1
  Pd  Pd26  1  0.93327273  0.93339756  0.60350689  1
  N  N27  1  0.59085251  0.59351758  0.70262578  1
  H  H28  1  0.68297556  0.62930626  0.71804127  1
  H  H29  1  0.45932602  0.68619600  0.71909626  1
  H  H30  1  0.62594712  0.46237988  0.72000587  1
