# generated using pymatgen
data_Fe4Mo12H3Se16N
_symmetry_space_group_name_H-M   'P 1'
_cell_length_a   6.73059675
_cell_length_b   6.68252955
_cell_length_c   28.41042900
_cell_angle_alpha   94.71078376
_cell_angle_beta   91.18717718
_cell_angle_gamma   96.76332947
_symmetry_Int_Tables_number   1
_chemical_formula_structural   Fe4Mo12H3Se16N
_chemical_formula_sum   'Fe4 Mo12 H3 Se16 N1'
_cell_volume   1264.05235895
_cell_formula_units_Z   1
loop_
 _symmetry_equiv_pos_site_id
 _symmetry_equiv_pos_as_xyz
  1  'x, y, z'
loop_
 _atom_site_type_symbol
 _atom_site_label
 _atom_site_symmetry_multiplicity
 _atom_site_fract_x
 _atom_site_fract_y
 _atom_site_fract_z
 _atom_site_occupancy
  Fe  Fe0  1  0.90906867  0.14684341  0.48029853  1
  Fe  Fe1  1  0.83447864  0.12680132  0.68001464  1
  Fe  Fe2  1  0.08366100  0.85003700  0.25310200  1
  Fe  Fe3  1  0.07862598  0.85043459  0.48770428  1
  Mo  Mo4  1  0.22948921  0.53611358  0.34743637  1
  Mo  Mo5  1  0.21389247  0.53533862  0.58193682  1
  Mo  Mo6  1  0.76616924  0.45895944  0.38746390  1
  Mo  Mo7  1  0.74131202  0.44658953  0.62309160  1
  Mo  Mo8  1  0.40829262  0.22557257  0.37691270  1
  Mo  Mo9  1  0.38485134  0.22269099  0.61293916  1
  Mo  Mo10  1  0.58939335  0.77307573  0.35811861  1
  Mo  Mo11  1  0.57424095  0.76431764  0.59403398  1
  Mo  Mo12  1  0.54876300  0.41297700  0.30450800  1
  Mo  Mo13  1  0.53384951  0.40691148  0.53908255  1
  Mo  Mo14  1  0.44699722  0.58505181  0.43137945  1
  Mo  Mo15  1  0.42423297  0.58352956  0.66450692  1
  Se  Se16  1  0.11203977  0.35868723  0.42323723  1
  Se  Se17  1  0.09241803  0.36845535  0.65719782  1
  Se  Se18  1  0.88453700  0.63734700  0.31138600  1
  Se  Se19  1  0.86834477  0.63235394  0.54794348  1
  Se  Se20  1  0.73262387  0.13458150  0.33400969  1
  Se  Se21  1  0.71939706  0.12309635  0.57010029  1
  Se  Se22  1  0.25685988  0.86330544  0.39963519  1
  Se  Se23  1  0.24600179  0.86230605  0.63522719  1
  Se  Se24  1  0.39326800  0.73478000  0.28166600  1
  Se  Se25  1  0.38359208  0.73238525  0.51663156  1
  Se  Se26  1  0.60135487  0.26162195  0.45371577  1
  Se  Se27  1  0.54341798  0.27701252  0.69655106  1
  Se  Se28  1  0.21444700  0.18780600  0.29890600  1
  Se  Se29  1  0.19924244  0.18399887  0.53311169  1
  Se  Se30  1  0.78140325  0.80997306  0.43710818  1
  Se  Se31  1  0.77067606  0.77107860  0.67623116  1
  N  N32  1  0.92692377  0.14345573  0.75202040  1
  H  H33  1  0.07629905  0.13275027  0.75796396  1
  H  H34  1  0.89746407  0.27575232  0.77033445  1
  H  H35  1  0.84991108  0.02751396  0.76861893  1
