# generated using pymatgen
data_HPd27
_symmetry_space_group_name_H-M   'P 1'
_cell_length_a   8.25688963
_cell_length_b   8.25682385
_cell_length_c   22.52889700
_cell_angle_alpha   86.49742100
_cell_angle_beta   86.49797035
_cell_angle_gamma   59.99972739
_symmetry_Int_Tables_number   1
_chemical_formula_structural   HPd27
_chemical_formula_sum   'Pd27 H1'
_cell_volume   1326.83127031
_cell_formula_units_Z   1
loop_
 _symmetry_equiv_pos_site_id
 _symmetry_equiv_pos_as_xyz
  1  'x, y, z'
loop_
 _atom_site_type_symbol
 _atom_site_label
 _atom_site_symmetry_multiplicity
 _atom_site_fract_x
 _atom_site_fract_y
 _atom_site_fract_z
 _atom_site_occupancy
  Pd  Pd0  1  0.06666700  0.06666600  0.40000000  1
  Pd  Pd1  1  0.06666700  0.39999900  0.40000000  1
  Pd  Pd2  1  0.06666700  0.73333300  0.40000000  1
  Pd  Pd3  1  0.40000000  0.06666600  0.40000000  1
  Pd  Pd4  1  0.40000000  0.39999900  0.40000000  1
  Pd  Pd5  1  0.40000000  0.73333300  0.40000000  1
  Pd  Pd6  1  0.73333300  0.06666600  0.40000000  1
  Pd  Pd7  1  0.73333300  0.39999900  0.40000000  1
  Pd  Pd8  1  0.73333300  0.73333300  0.40000000  1
  Pd  Pd9  1  0.16662959  0.16662535  0.50153125  1
  Pd  Pd10  1  0.16637337  0.50028755  0.50213236  1
  Pd  Pd11  1  0.16634381  0.83300852  0.50214013  1
  Pd  Pd12  1  0.50029147  0.16636965  0.50213242  1
  Pd  Pd13  1  0.49988069  0.49987646  0.50239903  1
  Pd  Pd14  1  0.50031217  0.83298443  0.50214024  1
  Pd  Pd15  1  0.83301267  0.16633963  0.50214010  1
  Pd  Pd16  1  0.83298858  0.50030825  0.50214016  1
  Pd  Pd17  1  0.83325794  0.83325351  0.50190819  1
  Pd  Pd18  1  0.26593603  0.26592676  0.60334070  1
  Pd  Pd19  1  0.26352136  0.60087905  0.60570181  1
  Pd  Pd20  1  0.26592117  0.93424339  0.60331368  1
  Pd  Pd21  1  0.60088834  0.26351272  0.60570190  1
  Pd  Pd22  1  0.60099483  0.60098535  0.60575633  1
  Pd  Pd23  1  0.59984764  0.93307371  0.60386319  1
  Pd  Pd24  1  0.93425213  0.26591229  0.60331362  1
  Pd  Pd25  1  0.93308242  0.59983896  0.60386339  1
  Pd  Pd26  1  0.93307645  0.93306739  0.60390680  1
  H  H27  1  0.48442345  0.48441524  0.64250687  1
