# generated using pymatgen
data_Fe2Mo12H(S8N)2
_symmetry_space_group_name_H-M   'P 1'
_cell_length_a   6.45357383
_cell_length_b   6.40729292
_cell_length_c   27.84326400
_cell_angle_alpha   93.27559587
_cell_angle_beta   96.42128096
_cell_angle_gamma   96.53695481
_symmetry_Int_Tables_number   1
_chemical_formula_structural   Fe2Mo12H(S8N)2
_chemical_formula_sum   'Fe2 Mo12 H1 S16 N2'
_cell_volume   1133.80606000
_cell_formula_units_Z   1
loop_
 _symmetry_equiv_pos_site_id
 _symmetry_equiv_pos_as_xyz
  1  'x, y, z'
loop_
 _atom_site_type_symbol
 _atom_site_label
 _atom_site_symmetry_multiplicity
 _atom_site_fract_x
 _atom_site_fract_y
 _atom_site_fract_z
 _atom_site_occupancy
  Fe  Fe0  1  0.93949794  0.15004649  0.45813251  1
  Fe  Fe1  1  0.90753249  0.13785598  0.68141585  1
  Mo  Mo2  1  0.21324400  0.54241800  0.34209900  1
  Mo  Mo3  1  0.20393870  0.54212027  0.57191155  1
  Mo  Mo4  1  0.79607224  0.45743349  0.38829658  1
  Mo  Mo5  1  0.77783428  0.44745167  0.61629414  1
  Mo  Mo6  1  0.41021454  0.21876104  0.37413228  1
  Mo  Mo7  1  0.39718838  0.21435778  0.60453406  1
  Mo  Mo8  1  0.59439000  0.78338100  0.35611600  1
  Mo  Mo9  1  0.58309496  0.77727017  0.58563277  1
  Mo  Mo10  1  0.53839000  0.41017300  0.30039200  1
  Mo  Mo11  1  0.53047344  0.40923716  0.52909732  1
  Mo  Mo12  1  0.46246882  0.59898463  0.43186268  1
  Mo  Mo13  1  0.45800080  0.58833823  0.65878950  1
  S  S14  1  0.14287493  0.36490745  0.41630643  1
  S  S15  1  0.13121121  0.36439394  0.64740486  1
  S  S16  1  0.86398200  0.63520500  0.31550800  1
  S  S17  1  0.85539691  0.63516893  0.54487827  1
  S  S18  1  0.72141400  0.13929400  0.33709200  1
  S  S19  1  0.70816539  0.13278638  0.56489389  1
  S  S20  1  0.27779993  0.86218371  0.39314418  1
  S  S21  1  0.26953715  0.85894184  0.62590178  1
  S  S22  1  0.37280800  0.72589200  0.28016400  1
  S  S23  1  0.36228361  0.72530080  0.50996624  1
  S  S24  1  0.62404285  0.27295711  0.45122478  1
  S  S25  1  0.60764143  0.27543018  0.68251496  1
  S  S26  1  0.19164500  0.20201400  0.29537700  1
  S  S27  1  0.18163160  0.20356435  0.52480231  1
  S  S28  1  0.81353987  0.80144957  0.43603700  1
  S  S29  1  0.80010439  0.78707659  0.66462492  1
  N  N30  1  0.97366016  0.13649529  0.74225568  1
  N  N31  1  0.92953377  0.11825090  0.78238596  1
  H  H32  1  0.04547516  0.13432220  0.81201909  1
