# generated using pymatgen
data_Fe2Mo12H(S8N)2
_symmetry_space_group_name_H-M   'P 1'
_cell_length_a   6.45357383
_cell_length_b   6.40729292
_cell_length_c   27.84326400
_cell_angle_alpha   93.27559587
_cell_angle_beta   96.42128096
_cell_angle_gamma   96.53695481
_symmetry_Int_Tables_number   1
_chemical_formula_structural   Fe2Mo12H(S8N)2
_chemical_formula_sum   'Fe2 Mo12 H1 S16 N2'
_cell_volume   1133.80606000
_cell_formula_units_Z   1
loop_
 _symmetry_equiv_pos_site_id
 _symmetry_equiv_pos_as_xyz
  1  'x, y, z'
loop_
 _atom_site_type_symbol
 _atom_site_label
 _atom_site_symmetry_multiplicity
 _atom_site_fract_x
 _atom_site_fract_y
 _atom_site_fract_z
 _atom_site_occupancy
  Fe  Fe0  1  0.94099044  0.15118766  0.46035046  1
  Fe  Fe1  1  0.88474916  0.11061035  0.65578946  1
  Mo  Mo2  1  0.21324400  0.54241800  0.34209900  1
  Mo  Mo3  1  0.21803157  0.53877712  0.57546126  1
  Mo  Mo4  1  0.79494852  0.45781888  0.38852066  1
  Mo  Mo5  1  0.78736677  0.45304966  0.61816864  1
  Mo  Mo6  1  0.41049364  0.21924130  0.37456326  1
  Mo  Mo7  1  0.40879267  0.21209091  0.60744194  1
  Mo  Mo8  1  0.59439000  0.78338100  0.35611600  1
  Mo  Mo9  1  0.59356064  0.77629423  0.58776737  1
  Mo  Mo10  1  0.53839000  0.41017300  0.30039200  1
  Mo  Mo11  1  0.53986108  0.41061233  0.53187049  1
  Mo  Mo12  1  0.46378307  0.59970442  0.43236555  1
  Mo  Mo13  1  0.47052800  0.58944163  0.66749461  1
  S  S14  1  0.14294261  0.36498797  0.41709027  1
  S  S15  1  0.14437551  0.36399249  0.65049264  1
  S  S16  1  0.86398200  0.63520500  0.31550800  1
  S  S17  1  0.86802787  0.63623633  0.54635249  1
  S  S18  1  0.72141400  0.13929400  0.33709200  1
  S  S19  1  0.71814276  0.12844543  0.56561386  1
  S  S20  1  0.27863043  0.86183122  0.39369348  1
  S  S21  1  0.28466546  0.85397398  0.62880693  1
  S  S22  1  0.37280800  0.72589200  0.28016400  1
  S  S23  1  0.37121707  0.72363125  0.51196591  1
  S  S24  1  0.62428584  0.27418507  0.45214629  1
  S  S25  1  0.62388372  0.26128743  0.68579372  1
  S  S26  1  0.19164500  0.20201400  0.29537700  1
  S  S27  1  0.19162242  0.20321527  0.52722252  1
  S  S28  1  0.81403026  0.80376163  0.43587058  1
  S  S29  1  0.81972394  0.77416093  0.66941607  1
  N  N30  1  0.47512934  0.64745658  0.73566513  1
  N  N31  1  0.48256634  0.67307668  0.77887380  1
  H  H32  1  0.58699059  0.59145717  0.80012569  1
