# generated using pymatgen
data_Mo12C(Se8O)2
_symmetry_space_group_name_H-M   'P 1'
_cell_length_a   6.61417350
_cell_length_b   6.61583473
_cell_length_c   28.23028900
_cell_angle_alpha   91.53841057
_cell_angle_beta   91.51120564
_cell_angle_gamma   91.52367391
_symmetry_Int_Tables_number   1
_chemical_formula_structural   Mo12C(Se8O)2
_chemical_formula_sum   'Mo12 Se16 C1 O2'
_cell_volume   1233.97341125
_cell_formula_units_Z   1
loop_
 _symmetry_equiv_pos_site_id
 _symmetry_equiv_pos_as_xyz
  1  'x, y, z'
loop_
 _atom_site_type_symbol
 _atom_site_label
 _atom_site_symmetry_multiplicity
 _atom_site_fract_x
 _atom_site_fract_y
 _atom_site_fract_z
 _atom_site_occupancy
  Mo  Mo0  1  0.22064400  0.54530100  0.34680900  1
  Mo  Mo1  1  0.23270954  0.54509493  0.58420452  1
  Mo  Mo2  1  0.77151285  0.45282535  0.38682229  1
  Mo  Mo3  1  0.77862631  0.45251034  0.62185405  1
  Mo  Mo4  1  0.41303313  0.22479587  0.37771585  1
  Mo  Mo5  1  0.42371523  0.22592325  0.61333893  1
  Mo  Mo6  1  0.57912907  0.77316510  0.35692532  1
  Mo  Mo7  1  0.59343895  0.77106933  0.59156331  1
  Mo  Mo8  1  0.54531000  0.41281400  0.30171000  1
  Mo  Mo9  1  0.55056924  0.41432372  0.53552470  1
  Mo  Mo10  1  0.45022631  0.58322206  0.43379218  1
  Mo  Mo11  1  0.45042805  0.59084247  0.67094825  1
  Se  Se12  1  0.12235223  0.37779116  0.42597895  1
  Se  Se13  1  0.12776039  0.37121930  0.66192293  1
  Se  Se14  1  0.87245300  0.62115500  0.30846200  1
  Se  Se15  1  0.88146229  0.61637166  0.54289212  1
  Se  Se16  1  0.75031900  0.12757300  0.33876000  1
  Se  Se17  1  0.75403771  0.12496673  0.57086767  1
  Se  Se18  1  0.24556969  0.87090257  0.39729411  1
  Se  Se19  1  0.25814391  0.87342310  0.63323175  1
  Se  Se20  1  0.37880700  0.75023000  0.27992500  1
  Se  Se21  1  0.38052444  0.74851639  0.51551789  1
  Se  Se22  1  0.62025664  0.24663145  0.45404254  1
  Se  Se23  1  0.63081589  0.25533265  0.68891275  1
  Se  Se24  1  0.21114700  0.21116100  0.29951300  1
  Se  Se25  1  0.22390910  0.20820423  0.53497458  1
  Se  Se26  1  0.78007914  0.78760216  0.43508552  1
  Se  Se27  1  0.78453801  0.78814404  0.67145628  1
  C  C28  1  0.42873395  0.54660837  0.74746477  1
  O  O29  1  0.38219470  0.72906992  0.74154879  1
  O  O30  1  0.43368334  0.43886780  0.78222081  1
