# generated using pymatgen
data_Pd27O
_symmetry_space_group_name_H-M   'P 1'
_cell_length_a   8.25688963
_cell_length_b   8.25682385
_cell_length_c   22.52889700
_cell_angle_alpha   86.49742100
_cell_angle_beta   86.49797035
_cell_angle_gamma   59.99972739
_symmetry_Int_Tables_number   1
_chemical_formula_structural   Pd27O
_chemical_formula_sum   'Pd27 O1'
_cell_volume   1326.83127031
_cell_formula_units_Z   1
loop_
 _symmetry_equiv_pos_site_id
 _symmetry_equiv_pos_as_xyz
  1  'x, y, z'
loop_
 _atom_site_type_symbol
 _atom_site_label
 _atom_site_symmetry_multiplicity
 _atom_site_fract_x
 _atom_site_fract_y
 _atom_site_fract_z
 _atom_site_occupancy
  Pd  Pd0  1  0.06666700  0.06666600  0.40000000  1
  Pd  Pd1  1  0.06666700  0.39999900  0.40000000  1
  Pd  Pd2  1  0.06666700  0.73333300  0.40000000  1
  Pd  Pd3  1  0.40000000  0.06666600  0.40000000  1
  Pd  Pd4  1  0.40000000  0.39999900  0.40000000  1
  Pd  Pd5  1  0.40000000  0.73333300  0.40000000  1
  Pd  Pd6  1  0.73333300  0.06666600  0.40000000  1
  Pd  Pd7  1  0.73333300  0.39999900  0.40000000  1
  Pd  Pd8  1  0.73333300  0.73333300  0.40000000  1
  Pd  Pd9  1  0.16518818  0.16518066  0.50122933  1
  Pd  Pd10  1  0.16437995  0.49779374  0.50373735  1
  Pd  Pd11  1  0.16522705  0.83073825  0.50122722  1
  Pd  Pd12  1  0.49780085  0.16437299  0.50373742  1
  Pd  Pd13  1  0.49773876  0.49773129  0.50373039  1
  Pd  Pd14  1  0.49830927  0.83148422  0.50080499  1
  Pd  Pd15  1  0.83074589  0.16521941  0.50122719  1
  Pd  Pd16  1  0.83149149  0.49830195  0.50080498  1
  Pd  Pd17  1  0.83147934  0.83147204  0.50084567  1
  Pd  Pd18  1  0.26294631  0.26293216  0.60454872  1
  Pd  Pd19  1  0.26302119  0.59691162  0.60452808  1
  Pd  Pd20  1  0.26042471  0.93168100  0.60199390  1
  Pd  Pd21  1  0.59692621  0.26300683  0.60452821  1
  Pd  Pd22  1  0.59338960  0.59337594  0.60403675  1
  Pd  Pd23  1  0.59336629  0.93621218  0.60418229  1
  Pd  Pd24  1  0.93169498  0.26041111  0.60199388  1
  Pd  Pd25  1  0.93622630  0.59335237  0.60418256  1
  Pd  Pd26  1  0.93163694  0.93162264  0.60198452  1
  O  O27  1  0.70147011  0.70145264  0.65805829  1
