# generated using pymatgen
data_Mo12HSe16
_symmetry_space_group_name_H-M   'P 1'
_cell_length_a   6.61417350
_cell_length_b   6.61583473
_cell_length_c   28.23028900
_cell_angle_alpha   91.53841057
_cell_angle_beta   91.51120564
_cell_angle_gamma   91.52367391
_symmetry_Int_Tables_number   1
_chemical_formula_structural   Mo12HSe16
_chemical_formula_sum   'Mo12 H1 Se16'
_cell_volume   1233.97341125
_cell_formula_units_Z   1
loop_
 _symmetry_equiv_pos_site_id
 _symmetry_equiv_pos_as_xyz
  1  'x, y, z'
loop_
 _atom_site_type_symbol
 _atom_site_label
 _atom_site_symmetry_multiplicity
 _atom_site_fract_x
 _atom_site_fract_y
 _atom_site_fract_z
 _atom_site_occupancy
  Mo  Mo0  1  0.22064400  0.54530100  0.34680900  1
  Mo  Mo1  1  0.23159130  0.53540801  0.58521716  1
  Mo  Mo2  1  0.77159667  0.45259001  0.38692726  1
  Mo  Mo3  1  0.77057362  0.43864294  0.62430512  1
  Mo  Mo4  1  0.41365431  0.22570961  0.37789161  1
  Mo  Mo5  1  0.42013781  0.21474988  0.61546514  1
  Mo  Mo6  1  0.57877723  0.77150195  0.35722530  1
  Mo  Mo7  1  0.58548056  0.76185078  0.59419627  1
  Mo  Mo8  1  0.54531000  0.41281400  0.30171000  1
  Mo  Mo9  1  0.55139952  0.40592002  0.53752057  1
  Mo  Mo10  1  0.44971162  0.58243210  0.43409768  1
  Mo  Mo11  1  0.44307411  0.57055198  0.66644230  1
  Se  Se12  1  0.12188057  0.37831143  0.42606994  1
  Se  Se13  1  0.12453768  0.35340166  0.66346996  1
  Se  Se14  1  0.87245300  0.62115500  0.30846200  1
  Se  Se15  1  0.87925337  0.60978459  0.54593488  1
  Se  Se16  1  0.75031900  0.12757300  0.33876000  1
  Se  Se17  1  0.75323357  0.11543137  0.57243305  1
  Se  Se18  1  0.24579528  0.87059226  0.39786623  1
  Se  Se19  1  0.24902215  0.86303682  0.63653313  1
  Se  Se20  1  0.37880700  0.75023000  0.27992500  1
  Se  Se21  1  0.38112025  0.73947400  0.51719001  1
  Se  Se22  1  0.62097206  0.24539442  0.45439417  1
  Se  Se23  1  0.63110669  0.23485522  0.69261389  1
  Se  Se24  1  0.21114700  0.21116100  0.29951300  1
  Se  Se25  1  0.22841842  0.19545623  0.53656048  1
  Se  Se26  1  0.77860033  0.78543699  0.43598067  1
  Se  Se27  1  0.77194691  0.77230048  0.67535958  1
  H  H28  1  0.51954582  0.42649476  0.72172998  1
