# generated using pymatgen
data_Pd27N2
_symmetry_space_group_name_H-M   'P 1'
_cell_length_a   8.25688963
_cell_length_b   8.25682385
_cell_length_c   22.52889700
_cell_angle_alpha   86.49742100
_cell_angle_beta   86.49797035
_cell_angle_gamma   59.99972739
_symmetry_Int_Tables_number   1
_chemical_formula_structural   Pd27N2
_chemical_formula_sum   'Pd27 N2'
_cell_volume   1326.83127031
_cell_formula_units_Z   1
loop_
 _symmetry_equiv_pos_site_id
 _symmetry_equiv_pos_as_xyz
  1  'x, y, z'
loop_
 _atom_site_type_symbol
 _atom_site_label
 _atom_site_symmetry_multiplicity
 _atom_site_fract_x
 _atom_site_fract_y
 _atom_site_fract_z
 _atom_site_occupancy
  Pd  Pd0  1  0.06666700  0.06666600  0.40000000  1
  Pd  Pd1  1  0.06666700  0.39999900  0.40000000  1
  Pd  Pd2  1  0.06666700  0.73333300  0.40000000  1
  Pd  Pd3  1  0.40000000  0.06666600  0.40000000  1
  Pd  Pd4  1  0.40000000  0.39999900  0.40000000  1
  Pd  Pd5  1  0.40000000  0.73333300  0.40000000  1
  Pd  Pd6  1  0.73333300  0.06666600  0.40000000  1
  Pd  Pd7  1  0.73333300  0.39999900  0.40000000  1
  Pd  Pd8  1  0.73333300  0.73333300  0.40000000  1
  Pd  Pd9  1  0.16676451  0.16676174  0.50116296  1
  Pd  Pd10  1  0.16674408  0.49985415  0.50116389  1
  Pd  Pd11  1  0.16649959  0.83319115  0.50131449  1
  Pd  Pd12  1  0.49985589  0.16674197  0.50116410  1
  Pd  Pd13  1  0.50051242  0.50050889  0.50292324  1
  Pd  Pd14  1  0.50016421  0.83217171  0.50284923  1
  Pd  Pd15  1  0.83319429  0.16649716  0.50131384  1
  Pd  Pd16  1  0.83217354  0.50016121  0.50284908  1
  Pd  Pd17  1  0.83334823  0.83334481  0.50136448  1
  Pd  Pd18  1  0.26649423  0.26648894  0.60350133  1
  Pd  Pd19  1  0.26417030  0.59969813  0.60312764  1
  Pd  Pd20  1  0.26400718  0.93560564  0.60301881  1
  Pd  Pd21  1  0.59970519  0.26416294  0.60312729  1
  Pd  Pd22  1  0.59933427  0.59932542  0.60706740  1
  Pd  Pd23  1  0.59974553  0.93567222  0.60298905  1
  Pd  Pd24  1  0.93561338  0.26399902  0.60301871  1
  Pd  Pd25  1  0.93567875  0.59973946  0.60298901  1
  Pd  Pd26  1  0.93316909  0.93316222  0.60309014  1
  N  N27  1  0.59425312  0.59424626  0.69428172  1
  N  N28  1  0.59370083  0.59369718  0.74409426  1
