# generated using pymatgen
data_HPd27N2
_symmetry_space_group_name_H-M   'P 1'
_cell_length_a   8.25688963
_cell_length_b   8.25682385
_cell_length_c   22.52889700
_cell_angle_alpha   86.49742100
_cell_angle_beta   86.49797035
_cell_angle_gamma   59.99972739
_symmetry_Int_Tables_number   1
_chemical_formula_structural   HPd27N2
_chemical_formula_sum   'Pd27 H1 N2'
_cell_volume   1326.83127031
_cell_formula_units_Z   1
loop_
 _symmetry_equiv_pos_site_id
 _symmetry_equiv_pos_as_xyz
  1  'x, y, z'
loop_
 _atom_site_type_symbol
 _atom_site_label
 _atom_site_symmetry_multiplicity
 _atom_site_fract_x
 _atom_site_fract_y
 _atom_site_fract_z
 _atom_site_occupancy
  Pd  Pd0  1  0.06666700  0.06666600  0.40000000  1
  Pd  Pd1  1  0.06666700  0.39999900  0.40000000  1
  Pd  Pd2  1  0.06666700  0.73333300  0.40000000  1
  Pd  Pd3  1  0.40000000  0.06666600  0.40000000  1
  Pd  Pd4  1  0.40000000  0.39999900  0.40000000  1
  Pd  Pd5  1  0.40000000  0.73333300  0.40000000  1
  Pd  Pd6  1  0.73333300  0.06666600  0.40000000  1
  Pd  Pd7  1  0.73333300  0.39999900  0.40000000  1
  Pd  Pd8  1  0.73333300  0.73333300  0.40000000  1
  Pd  Pd9  1  0.16626121  0.16609217  0.50114435  1
  Pd  Pd10  1  0.16489864  0.50002165  0.50180595  1
  Pd  Pd11  1  0.16602765  0.83284763  0.50138702  1
  Pd  Pd12  1  0.49910281  0.16683958  0.50101180  1
  Pd  Pd13  1  0.49993992  0.50057106  0.50339110  1
  Pd  Pd14  1  0.49974501  0.83153607  0.50251196  1
  Pd  Pd15  1  0.83232245  0.16649184  0.50124230  1
  Pd  Pd16  1  0.83179391  0.49996200  0.50208647  1
  Pd  Pd17  1  0.83262791  0.83221685  0.50154627  1
  Pd  Pd18  1  0.26507212  0.26570852  0.60301480  1
  Pd  Pd19  1  0.26353619  0.59933986  0.60329539  1
  Pd  Pd20  1  0.26354400  0.93302276  0.60280109  1
  Pd  Pd21  1  0.59783502  0.26480190  0.60309094  1
  Pd  Pd22  1  0.59625856  0.59825517  0.60879030  1
  Pd  Pd23  1  0.59722084  0.93564295  0.60246558  1
  Pd  Pd24  1  0.93353890  0.26280695  0.60210698  1
  Pd  Pd25  1  0.93181936  0.59883102  0.60446626  1
  Pd  Pd26  1  0.93189490  0.93212709  0.60280962  1
  N  N27  1  0.66936928  0.59637967  0.68939604  1
  N  N28  1  0.58602143  0.59216803  0.73458798  1
  H  H29  1  0.64722420  0.59234279  0.77403866  1
