# generated using pymatgen
data_Fe2Mo12H3S16N
_symmetry_space_group_name_H-M   'P 1'
_cell_length_a   6.45357383
_cell_length_b   6.40729292
_cell_length_c   27.84326400
_cell_angle_alpha   93.27559587
_cell_angle_beta   96.42128096
_cell_angle_gamma   96.53695481
_symmetry_Int_Tables_number   1
_chemical_formula_structural   Fe2Mo12H3S16N
_chemical_formula_sum   'Fe2 Mo12 H3 S16 N1'
_cell_volume   1133.80606000
_cell_formula_units_Z   1
loop_
 _symmetry_equiv_pos_site_id
 _symmetry_equiv_pos_as_xyz
  1  'x, y, z'
loop_
 _atom_site_type_symbol
 _atom_site_label
 _atom_site_symmetry_multiplicity
 _atom_site_fract_x
 _atom_site_fract_y
 _atom_site_fract_z
 _atom_site_occupancy
  Fe  Fe0  1  0.94120861  0.15152273  0.45997546  1
  Fe  Fe1  1  0.88819657  0.10249416  0.65367564  1
  Mo  Mo2  1  0.21324400  0.54241800  0.34209900  1
  Mo  Mo3  1  0.21806118  0.53903762  0.57493309  1
  Mo  Mo4  1  0.79621041  0.45770810  0.38839292  1
  Mo  Mo5  1  0.78578118  0.45039100  0.61640681  1
  Mo  Mo6  1  0.41051395  0.21907340  0.37435386  1
  Mo  Mo7  1  0.40951455  0.20798698  0.60553576  1
  Mo  Mo8  1  0.59439000  0.78338100  0.35611600  1
  Mo  Mo9  1  0.59321572  0.77553151  0.58670993  1
  Mo  Mo10  1  0.53839000  0.41017300  0.30039200  1
  Mo  Mo11  1  0.53940922  0.41177169  0.53035241  1
  Mo  Mo12  1  0.46406570  0.59999625  0.43213544  1
  Mo  Mo13  1  0.47352681  0.57506618  0.66197027  1
  S  S14  1  0.14340038  0.36547397  0.41686837  1
  S  S15  1  0.14302065  0.36146959  0.64915734  1
  S  S16  1  0.86398200  0.63520500  0.31550800  1
  S  S17  1  0.86766926  0.63885469  0.54529175  1
  S  S18  1  0.72141400  0.13929400  0.33709200  1
  S  S19  1  0.71866554  0.12828889  0.56354756  1
  S  S20  1  0.27846577  0.86205459  0.39346675  1
  S  S21  1  0.28855053  0.85325139  0.62930988  1
  S  S22  1  0.37280800  0.72589200  0.28016400  1
  S  S23  1  0.36904538  0.72463929  0.51137385  1
  S  S24  1  0.62465522  0.27425151  0.45155811  1
  S  S25  1  0.62936490  0.26079941  0.68466820  1
  S  S26  1  0.19164500  0.20201400  0.29537700  1
  S  S27  1  0.19165961  0.20458463  0.52614583  1
  S  S28  1  0.81442049  0.80373451  0.43574064  1
  S  S29  1  0.81866762  0.76882130  0.66908417  1
  N  N30  1  0.45879616  0.62305054  0.74249050  1
  H  H31  1  0.60757041  0.66157904  0.76061247  1
  H  H32  1  0.36867778  0.73418560  0.75402482  1
  H  H33  1  0.40104391  0.48236539  0.75500697  1
