# generated using pymatgen
data_Fe2Mo12HS16
_symmetry_space_group_name_H-M   'P 1'
_cell_length_a   6.45357383
_cell_length_b   6.40729292
_cell_length_c   27.84326400
_cell_angle_alpha   93.27559587
_cell_angle_beta   96.42128096
_cell_angle_gamma   96.53695481
_symmetry_Int_Tables_number   1
_chemical_formula_structural   Fe2Mo12HS16
_chemical_formula_sum   'Fe2 Mo12 H1 S16'
_cell_volume   1133.80606000
_cell_formula_units_Z   1
loop_
 _symmetry_equiv_pos_site_id
 _symmetry_equiv_pos_as_xyz
  1  'x, y, z'
loop_
 _atom_site_type_symbol
 _atom_site_label
 _atom_site_symmetry_multiplicity
 _atom_site_fract_x
 _atom_site_fract_y
 _atom_site_fract_z
 _atom_site_occupancy
  Fe  Fe0  1  0.94280514  0.15413796  0.46091919  1
  Fe  Fe1  1  0.86867556  0.13109834  0.65846768  1
  Mo  Mo2  1  0.21324400  0.54241800  0.34209900  1
  Mo  Mo3  1  0.22376379  0.55212718  0.57543795  1
  Mo  Mo4  1  0.79625189  0.45809918  0.38858575  1
  Mo  Mo5  1  0.79258875  0.47198683  0.61606350  1
  Mo  Mo6  1  0.41117018  0.22024088  0.37465908  1
  Mo  Mo7  1  0.41381539  0.22523272  0.60793330  1
  Mo  Mo8  1  0.59439000  0.78338100  0.35611600  1
  Mo  Mo9  1  0.59572734  0.78776280  0.58768863  1
  Mo  Mo10  1  0.53839000  0.41017300  0.30039200  1
  Mo  Mo11  1  0.54235599  0.42153655  0.53155614  1
  Mo  Mo12  1  0.46492636  0.60200083  0.43242858  1
  Mo  Mo13  1  0.46961243  0.58873637  0.66192836  1
  S  S14  1  0.14429679  0.36695145  0.41736763  1
  S  S15  1  0.13995406  0.37264868  0.65031092  1
  S  S16  1  0.86398200  0.63520500  0.31550800  1
  S  S17  1  0.87140926  0.65093266  0.54554070  1
  S  S18  1  0.72141400  0.13929400  0.33709200  1
  S  S19  1  0.72423396  0.14263812  0.56648053  1
  S  S20  1  0.27858398  0.86265598  0.39340307  1
  S  S21  1  0.28854783  0.86756348  0.62981182  1
  S  S22  1  0.37280800  0.72589200  0.28016400  1
  S  S23  1  0.37426748  0.73494399  0.51184317  1
  S  S24  1  0.62526492  0.27631582  0.45234824  1
  S  S25  1  0.61203641  0.27918670  0.69338891  1
  S  S26  1  0.19164500  0.20201400  0.29537700  1
  S  S27  1  0.19577348  0.21335345  0.52808669  1
  S  S28  1  0.81553366  0.80625935  0.43551060  1
  S  S29  1  0.81025776  0.78742256  0.67048860  1
  H  H30  1  0.48818054  0.14675803  0.71870595  1
