# generated using pymatgen
data_Pd27CO2
_symmetry_space_group_name_H-M   'P 1'
_cell_length_a   8.25688963
_cell_length_b   8.25682385
_cell_length_c   22.52889700
_cell_angle_alpha   86.49742100
_cell_angle_beta   86.49797035
_cell_angle_gamma   59.99972739
_symmetry_Int_Tables_number   1
_chemical_formula_structural   Pd27CO2
_chemical_formula_sum   'Pd27 C1 O2'
_cell_volume   1326.83127031
_cell_formula_units_Z   1
loop_
 _symmetry_equiv_pos_site_id
 _symmetry_equiv_pos_as_xyz
  1  'x, y, z'
loop_
 _atom_site_type_symbol
 _atom_site_label
 _atom_site_symmetry_multiplicity
 _atom_site_fract_x
 _atom_site_fract_y
 _atom_site_fract_z
 _atom_site_occupancy
  Pd  Pd0  1  0.06666700  0.06666600  0.40000000  1
  Pd  Pd1  1  0.06666700  0.39999900  0.40000000  1
  Pd  Pd2  1  0.06666700  0.73333300  0.40000000  1
  Pd  Pd3  1  0.40000000  0.06666600  0.40000000  1
  Pd  Pd4  1  0.40000000  0.39999900  0.40000000  1
  Pd  Pd5  1  0.40000000  0.73333300  0.40000000  1
  Pd  Pd6  1  0.73333300  0.06666600  0.40000000  1
  Pd  Pd7  1  0.73333300  0.39999900  0.40000000  1
  Pd  Pd8  1  0.73333300  0.73333300  0.40000000  1
  Pd  Pd9  1  0.16633350  0.16684798  0.50154998  1
  Pd  Pd10  1  0.16647189  0.50032445  0.50141393  1
  Pd  Pd11  1  0.16690100  0.83324622  0.50157034  1
  Pd  Pd12  1  0.49989682  0.16673890  0.50153871  1
  Pd  Pd13  1  0.50015801  0.50062579  0.50256610  1
  Pd  Pd14  1  0.50026656  0.83227524  0.50223092  1
  Pd  Pd15  1  0.83298068  0.16717262  0.50142747  1
  Pd  Pd16  1  0.83201655  0.50059072  0.50247872  1
  Pd  Pd17  1  0.83281843  0.83334699  0.50156538  1
  Pd  Pd18  1  0.26611779  0.26728067  0.60323679  1
  Pd  Pd19  1  0.26556409  0.60023899  0.60336747  1
  Pd  Pd20  1  0.26566106  0.93411081  0.60298935  1
  Pd  Pd21  1  0.59978292  0.26656699  0.60310493  1
  Pd  Pd22  1  0.59903927  0.59993059  0.60947671  1
  Pd  Pd23  1  0.59954731  0.93432542  0.60304097  1
  Pd  Pd24  1  0.93332542  0.26629240  0.60311313  1
  Pd  Pd25  1  0.93413651  0.60018848  0.60317922  1
  Pd  Pd26  1  0.93289071  0.93372274  0.60309887  1
  C  C27  1  0.59706750  0.59448381  0.69986729  1
  O  O28  1  0.51850851  0.75288971  0.72087358  1
  O  O29  1  0.67453287  0.43321383  0.72223997  1
