# generated using pymatgen
data_Fe4Mo12HSe16
_symmetry_space_group_name_H-M   'P 1'
_cell_length_a   6.73059675
_cell_length_b   6.68252955
_cell_length_c   28.41042900
_cell_angle_alpha   94.71078376
_cell_angle_beta   91.18717718
_cell_angle_gamma   96.76332947
_symmetry_Int_Tables_number   1
_chemical_formula_structural   Fe4Mo12HSe16
_chemical_formula_sum   'Fe4 Mo12 H1 Se16'
_cell_volume   1264.05235895
_cell_formula_units_Z   1
loop_
 _symmetry_equiv_pos_site_id
 _symmetry_equiv_pos_as_xyz
  1  'x, y, z'
loop_
 _atom_site_type_symbol
 _atom_site_label
 _atom_site_symmetry_multiplicity
 _atom_site_fract_x
 _atom_site_fract_y
 _atom_site_fract_z
 _atom_site_occupancy
  Fe  Fe0  1  0.92019231  0.14887004  0.47930956  1
  Fe  Fe1  1  0.81725767  0.11022795  0.65520682  1
  Fe  Fe2  1  0.08366100  0.85003700  0.25310200  1
  Fe  Fe3  1  0.08619593  0.85319336  0.48722949  1
  Mo  Mo4  1  0.23087459  0.53704157  0.34776008  1
  Mo  Mo5  1  0.22460008  0.54069341  0.58441903  1
  Mo  Mo6  1  0.76779591  0.46068066  0.38771694  1
  Mo  Mo7  1  0.75608192  0.46084900  0.62355815  1
  Mo  Mo8  1  0.40992174  0.22826904  0.37749345  1
  Mo  Mo9  1  0.40033149  0.22642918  0.61469365  1
  Mo  Mo10  1  0.59046874  0.77355248  0.35820644  1
  Mo  Mo11  1  0.58300591  0.77341093  0.59563498  1
  Mo  Mo12  1  0.54876300  0.41297700  0.30450800  1
  Mo  Mo13  1  0.54236956  0.41703378  0.54028408  1
  Mo  Mo14  1  0.44968096  0.58818254  0.43205110  1
  Mo  Mo15  1  0.43773829  0.58524445  0.66601252  1
  Se  Se16  1  0.11504687  0.36270639  0.42387185  1
  Se  Se17  1  0.10179874  0.36662059  0.65905342  1
  Se  Se18  1  0.88453700  0.63734700  0.31138600  1
  Se  Se19  1  0.87796614  0.64329415  0.54899064  1
  Se  Se20  1  0.73315219  0.13568327  0.33454309  1
  Se  Se21  1  0.73045599  0.12942478  0.56915427  1
  Se  Se22  1  0.25950367  0.86542239  0.39968736  1
  Se  Se23  1  0.25767683  0.86664387  0.63814800  1
  Se  Se24  1  0.39326800  0.73478000  0.28166600  1
  Se  Se25  1  0.38952301  0.73740430  0.51811818  1
  Se  Se26  1  0.60559300  0.26486668  0.45471066  1
  Se  Se27  1  0.57865483  0.28236471  0.69706072  1
  Se  Se28  1  0.21444700  0.18780600  0.29890600  1
  Se  Se29  1  0.20626502  0.19298454  0.53509759  1
  Se  Se30  1  0.78483765  0.81172609  0.43732543  1
  Se  Se31  1  0.77971333  0.78056396  0.68001289  1
  H  H32  1  0.90916622  0.10690570  0.70393721  1
