# generated using pymatgen
data_Ag26PtO
_symmetry_space_group_name_H-M   'P 1'
_cell_length_a   8.60496519
_cell_length_b   8.60496881
_cell_length_c   23.47925300
_cell_angle_alpha   90.00483404
_cell_angle_beta   93.49762144
_cell_angle_gamma   119.99565775
_symmetry_Int_Tables_number   1
_chemical_formula_structural   Ag26PtO
_chemical_formula_sum   'Ag26 Pt1 O1'
_cell_volume   1501.93330901
_cell_formula_units_Z   1
loop_
 _symmetry_equiv_pos_site_id
 _symmetry_equiv_pos_as_xyz
  1  'x, y, z'
loop_
 _atom_site_type_symbol
 _atom_site_label
 _atom_site_symmetry_multiplicity
 _atom_site_fract_x
 _atom_site_fract_y
 _atom_site_fract_z
 _atom_site_occupancy
  Ag  Ag0  1  0.20000000  0.26666700  0.40000000  1
  Ag  Ag1  1  0.20000000  0.60000000  0.40000000  1
  Ag  Ag2  1  0.20000000  0.93333300  0.40000000  1
  Ag  Ag3  1  0.53333300  0.26666700  0.40000000  1
  Ag  Ag4  1  0.53333300  0.60000000  0.40000000  1
  Ag  Ag5  1  0.53333300  0.93333300  0.40000000  1
  Ag  Ag6  1  0.86666700  0.26666700  0.40000000  1
  Ag  Ag7  1  0.86666700  0.60000000  0.40000000  1
  Ag  Ag8  1  0.86666700  0.93333300  0.40000000  1
  Ag  Ag9  1  0.33961205  0.16971498  0.50329416  1
  Ag  Ag10  1  0.33960672  0.50330239  0.50329091  1
  Ag  Ag11  1  0.33814173  0.83578608  0.50344800  1
  Ag  Ag12  1  0.67257004  0.16908898  0.50247976  1
  Ag  Ag13  1  0.66997872  0.50169551  0.50112979  1
  Ag  Ag14  1  0.67257259  0.83689103  0.50248218  1
  Ag  Ag15  1  0.00617252  0.16979172  0.50302924  1
  Ag  Ag16  1  0.00708640  0.50130411  0.50319178  1
  Ag  Ag17  1  0.00708281  0.83918492  0.50319340  1
  Ag  Ag18  1  0.13574232  0.06120119  0.60583463  1
  Ag  Ag19  1  0.13573718  0.40802503  0.60583341  1
  Ag  Ag20  1  0.14342658  0.73845527  0.60543470  1
  Ag  Ag21  1  0.47726668  0.07132999  0.60519230  1
  Ag  Ag22  1  0.47725498  0.73940747  0.60519080  1
  Ag  Ag23  1  0.80699656  0.07024152  0.60434383  1
  Ag  Ag24  1  0.80796976  0.40556582  0.60335523  1
  Ag  Ag25  1  0.80795980  0.73588352  0.60336003  1
  Pt  Pt26  1  0.48724441  0.41036216  0.60074807  1
  O  O27  1  0.30296108  0.31824541  0.65762819  1
