# generated using pymatgen
data_Fe4Mo12HSe16
_symmetry_space_group_name_H-M   'P 1'
_cell_length_a   6.73059675
_cell_length_b   6.68252955
_cell_length_c   28.41042900
_cell_angle_alpha   94.71078376
_cell_angle_beta   91.18717718
_cell_angle_gamma   96.76332947
_symmetry_Int_Tables_number   1
_chemical_formula_structural   Fe4Mo12HSe16
_chemical_formula_sum   'Fe4 Mo12 H1 Se16'
_cell_volume   1264.05235895
_cell_formula_units_Z   1
loop_
 _symmetry_equiv_pos_site_id
 _symmetry_equiv_pos_as_xyz
  1  'x, y, z'
loop_
 _atom_site_type_symbol
 _atom_site_label
 _atom_site_symmetry_multiplicity
 _atom_site_fract_x
 _atom_site_fract_y
 _atom_site_fract_z
 _atom_site_occupancy
  Fe  Fe0  1  0.92865464  0.15434770  0.47981363  1
  Fe  Fe1  1  0.79819847  0.12081695  0.65283437  1
  Fe  Fe2  1  0.08366100  0.85003700  0.25310200  1
  Fe  Fe3  1  0.10249627  0.86350215  0.48150895  1
  Mo  Mo4  1  0.23184242  0.53774050  0.34780375  1
  Mo  Mo5  1  0.23070839  0.53857590  0.58586483  1
  Mo  Mo6  1  0.76898321  0.46229875  0.38778502  1
  Mo  Mo7  1  0.76923552  0.46573945  0.62170135  1
  Mo  Mo8  1  0.41136422  0.22992868  0.37756728  1
  Mo  Mo9  1  0.41267164  0.22590248  0.61649749  1
  Mo  Mo10  1  0.59224145  0.77431060  0.35814040  1
  Mo  Mo11  1  0.58709505  0.77304309  0.59583826  1
  Mo  Mo12  1  0.54876300  0.41297700  0.30450800  1
  Mo  Mo13  1  0.54801941  0.41618912  0.54102759  1
  Mo  Mo14  1  0.45106284  0.58901713  0.43221639  1
  Mo  Mo15  1  0.44426318  0.57881335  0.66734553  1
  Se  Se16  1  0.11712610  0.36430330  0.42384092  1
  Se  Se17  1  0.10683825  0.35591288  0.66071508  1
  Se  Se18  1  0.88453700  0.63734700  0.31138600  1
  Se  Se19  1  0.88494893  0.64554154  0.54860596  1
  Se  Se20  1  0.73430667  0.13673570  0.33466153  1
  Se  Se21  1  0.73348886  0.12861374  0.56759893  1
  Se  Se22  1  0.26092783  0.86782079  0.39918657  1
  Se  Se23  1  0.26572372  0.86396772  0.63978642  1
  Se  Se24  1  0.39326800  0.73478000  0.28166600  1
  Se  Se25  1  0.38757378  0.73228245  0.51917448  1
  Se  Se26  1  0.60815541  0.26715186  0.45480932  1
  Se  Se27  1  0.58238511  0.28657144  0.70696749  1
  Se  Se28  1  0.21444700  0.18780600  0.29890600  1
  Se  Se29  1  0.21471164  0.18979935  0.53711620  1
  Se  Se30  1  0.78412681  0.81392086  0.43753428  1
  Se  Se31  1  0.78484183  0.78587465  0.67869891  1
  H  H32  1  0.41482944  0.13309134  0.72045613  1
