# generated using pymatgen
data_Ag26PtO
_symmetry_space_group_name_H-M   'P 1'
_cell_length_a   8.60496519
_cell_length_b   8.60496881
_cell_length_c   23.47925300
_cell_angle_alpha   90.00483404
_cell_angle_beta   93.49762144
_cell_angle_gamma   119.99565775
_symmetry_Int_Tables_number   1
_chemical_formula_structural   Ag26PtO
_chemical_formula_sum   'Ag26 Pt1 O1'
_cell_volume   1501.93330901
_cell_formula_units_Z   1
loop_
 _symmetry_equiv_pos_site_id
 _symmetry_equiv_pos_as_xyz
  1  'x, y, z'
loop_
 _atom_site_type_symbol
 _atom_site_label
 _atom_site_symmetry_multiplicity
 _atom_site_fract_x
 _atom_site_fract_y
 _atom_site_fract_z
 _atom_site_occupancy
  Ag  Ag0  1  0.20000000  0.26666700  0.40000000  1
  Ag  Ag1  1  0.20000000  0.60000000  0.40000000  1
  Ag  Ag2  1  0.20000000  0.93333300  0.40000000  1
  Ag  Ag3  1  0.53333300  0.26666700  0.40000000  1
  Ag  Ag4  1  0.53333300  0.60000000  0.40000000  1
  Ag  Ag5  1  0.53333300  0.93333300  0.40000000  1
  Ag  Ag6  1  0.86666700  0.26666700  0.40000000  1
  Ag  Ag7  1  0.86666700  0.60000000  0.40000000  1
  Ag  Ag8  1  0.86666700  0.93333300  0.40000000  1
  Ag  Ag9  1  0.33828590  0.16978061  0.50125711  1
  Ag  Ag10  1  0.33827953  0.50185611  0.50125567  1
  Ag  Ag11  1  0.33825117  0.83580896  0.50202867  1
  Ag  Ag12  1  0.67185365  0.16921528  0.50128186  1
  Ag  Ag13  1  0.67132194  0.50233611  0.49928536  1
  Ag  Ag14  1  0.67185686  0.83599075  0.50128072  1
  Ag  Ag15  1  0.00473955  0.16904270  0.50151148  1
  Ag  Ag16  1  0.00625816  0.50107051  0.50185148  1
  Ag  Ag17  1  0.00626063  0.83854797  0.50185246  1
  Ag  Ag18  1  0.13251692  0.05927878  0.60383833  1
  Ag  Ag19  1  0.13250331  0.40666923  0.60384202  1
  Ag  Ag20  1  0.13969775  0.73656329  0.60278543  1
  Ag  Ag21  1  0.47356508  0.07066633  0.60298360  1
  Ag  Ag22  1  0.47355256  0.73630182  0.60298444  1
  Ag  Ag23  1  0.80439772  0.06889209  0.60228188  1
  Ag  Ag24  1  0.80491692  0.40507825  0.60133181  1
  Ag  Ag25  1  0.80492443  0.73324172  0.60133499  1
  Pt  Pt26  1  0.48574317  0.40958934  0.59756394  1
  O  O27  1  0.30014881  0.31680454  0.65154710  1
