# generated using pymatgen
data_Ag26PtO
_symmetry_space_group_name_H-M   'P 1'
_cell_length_a   8.60496519
_cell_length_b   8.60496881
_cell_length_c   23.47925300
_cell_angle_alpha   90.00483404
_cell_angle_beta   93.49762144
_cell_angle_gamma   119.99565775
_symmetry_Int_Tables_number   1
_chemical_formula_structural   Ag26PtO
_chemical_formula_sum   'Ag26 Pt1 O1'
_cell_volume   1501.93330901
_cell_formula_units_Z   1
loop_
 _symmetry_equiv_pos_site_id
 _symmetry_equiv_pos_as_xyz
  1  'x, y, z'
loop_
 _atom_site_type_symbol
 _atom_site_label
 _atom_site_symmetry_multiplicity
 _atom_site_fract_x
 _atom_site_fract_y
 _atom_site_fract_z
 _atom_site_occupancy
  Ag  Ag0  1  0.20000000  0.26666700  0.40000000  1
  Ag  Ag1  1  0.20000000  0.60000000  0.40000000  1
  Ag  Ag2  1  0.20000000  0.93333300  0.40000000  1
  Ag  Ag3  1  0.53333300  0.26666700  0.40000000  1
  Ag  Ag4  1  0.53333300  0.60000000  0.40000000  1
  Ag  Ag5  1  0.53333300  0.93333300  0.40000000  1
  Ag  Ag6  1  0.86666700  0.26666700  0.40000000  1
  Ag  Ag7  1  0.86666700  0.60000000  0.40000000  1
  Ag  Ag8  1  0.86666700  0.93333300  0.40000000  1
  Ag  Ag9  1  0.33980379  0.16994202  0.50302499  1
  Ag  Ag10  1  0.33980066  0.50320825  0.50302487  1
  Ag  Ag11  1  0.33838078  0.83587475  0.50337120  1
  Ag  Ag12  1  0.67258843  0.16912212  0.50228631  1
  Ag  Ag13  1  0.67016914  0.50176638  0.50079091  1
  Ag  Ag14  1  0.67259254  0.83682180  0.50229133  1
  Ag  Ag15  1  0.00647699  0.16991283  0.50262225  1
  Ag  Ag16  1  0.00703186  0.50128857  0.50297649  1
  Ag  Ag17  1  0.00702260  0.83908082  0.50297968  1
  Ag  Ag18  1  0.13472165  0.06065887  0.60542723  1
  Ag  Ag19  1  0.13470656  0.40748163  0.60543109  1
  Ag  Ag20  1  0.14268962  0.73805688  0.60519965  1
  Ag  Ag21  1  0.47630535  0.07104866  0.60514619  1
  Ag  Ag22  1  0.47629279  0.73866576  0.60514835  1
  Ag  Ag23  1  0.80600567  0.06971525  0.60389104  1
  Ag  Ag24  1  0.80734307  0.40542102  0.60295468  1
  Ag  Ag25  1  0.80734333  0.73534693  0.60296932  1
  Pt  Pt26  1  0.48793392  0.41067671  0.60035681  1
  O  O27  1  0.30193996  0.31769727  0.65610437  1
