# generated using pymatgen
data_HPd27
_symmetry_space_group_name_H-M   'P 1'
_cell_length_a   8.25688963
_cell_length_b   8.25682385
_cell_length_c   22.52889700
_cell_angle_alpha   86.49742100
_cell_angle_beta   86.49797035
_cell_angle_gamma   59.99972739
_symmetry_Int_Tables_number   1
_chemical_formula_structural   HPd27
_chemical_formula_sum   'Pd27 H1'
_cell_volume   1326.83127031
_cell_formula_units_Z   1
loop_
 _symmetry_equiv_pos_site_id
 _symmetry_equiv_pos_as_xyz
  1  'x, y, z'
loop_
 _atom_site_type_symbol
 _atom_site_label
 _atom_site_symmetry_multiplicity
 _atom_site_fract_x
 _atom_site_fract_y
 _atom_site_fract_z
 _atom_site_occupancy
  Pd  Pd0  1  0.06666700  0.06666600  0.40000000  1
  Pd  Pd1  1  0.06666700  0.39999900  0.40000000  1
  Pd  Pd2  1  0.06666700  0.73333300  0.40000000  1
  Pd  Pd3  1  0.40000000  0.06666600  0.40000000  1
  Pd  Pd4  1  0.40000000  0.39999900  0.40000000  1
  Pd  Pd5  1  0.40000000  0.73333300  0.40000000  1
  Pd  Pd6  1  0.73333300  0.06666600  0.40000000  1
  Pd  Pd7  1  0.73333300  0.39999900  0.40000000  1
  Pd  Pd8  1  0.73333300  0.73333300  0.40000000  1
  Pd  Pd9  1  0.16662152  0.16661675  0.50163027  1
  Pd  Pd10  1  0.16628802  0.50034744  0.50226016  1
  Pd  Pd11  1  0.16626395  0.83299458  0.50226448  1
  Pd  Pd12  1  0.50035180  0.16628386  0.50226020  1
  Pd  Pd13  1  0.49988159  0.49987703  0.50242184  1
  Pd  Pd14  1  0.50037087  0.83297935  0.50226494  1
  Pd  Pd15  1  0.83299884  0.16625968  0.50226446  1
  Pd  Pd16  1  0.83298380  0.50036651  0.50226480  1
  Pd  Pd17  1  0.83324390  0.83323905  0.50204694  1
  Pd  Pd18  1  0.26587097  0.26586127  0.60363405  1
  Pd  Pd19  1  0.26420295  0.60055923  0.60594360  1
  Pd  Pd20  1  0.26586479  0.93436292  0.60361516  1
  Pd  Pd21  1  0.60056906  0.26419324  0.60594376  1
  Pd  Pd22  1  0.60062765  0.60061771  0.60598751  1
  Pd  Pd23  1  0.59996479  0.93301955  0.60403826  1
  Pd  Pd24  1  0.93437258  0.26585536  0.60361499  1
  Pd  Pd25  1  0.93302907  0.59995510  0.60403837  1
  Pd  Pd26  1  0.93301772  0.93300809  0.60406428  1
  H  H27  1  0.48423301  0.48422362  0.64438494  1
