# generated using pymatgen
data_Fe4Mo12H3Se16N
_symmetry_space_group_name_H-M   'P 1'
_cell_length_a   6.73059675
_cell_length_b   6.68252955
_cell_length_c   28.41042900
_cell_angle_alpha   94.71078376
_cell_angle_beta   91.18717718
_cell_angle_gamma   96.76332947
_symmetry_Int_Tables_number   1
_chemical_formula_structural   Fe4Mo12H3Se16N
_chemical_formula_sum   'Fe4 Mo12 H3 Se16 N1'
_cell_volume   1264.05235895
_cell_formula_units_Z   1
loop_
 _symmetry_equiv_pos_site_id
 _symmetry_equiv_pos_as_xyz
  1  'x, y, z'
loop_
 _atom_site_type_symbol
 _atom_site_label
 _atom_site_symmetry_multiplicity
 _atom_site_fract_x
 _atom_site_fract_y
 _atom_site_fract_z
 _atom_site_occupancy
  Fe  Fe0  1  0.90926749  0.14736597  0.48092985  1
  Fe  Fe1  1  0.83734770  0.13124362  0.68133554  1
  Fe  Fe2  1  0.08366100  0.85003700  0.25310200  1
  Fe  Fe3  1  0.07696913  0.85012584  0.48804404  1
  Mo  Mo4  1  0.22918637  0.53628144  0.34750326  1
  Mo  Mo5  1  0.21605021  0.53909009  0.58233623  1
  Mo  Mo6  1  0.76635547  0.45967350  0.38755947  1
  Mo  Mo7  1  0.74231111  0.45133823  0.62333220  1
  Mo  Mo8  1  0.40836402  0.22656779  0.37705295  1
  Mo  Mo9  1  0.38702999  0.22614488  0.61335533  1
  Mo  Mo10  1  0.58863502  0.77371838  0.35812961  1
  Mo  Mo11  1  0.57603302  0.76787522  0.59430562  1
  Mo  Mo12  1  0.54876300  0.41297700  0.30450800  1
  Mo  Mo13  1  0.53533770  0.41117534  0.53931546  1
  Mo  Mo14  1  0.44615631  0.58707427  0.43151567  1
  Mo  Mo15  1  0.42554738  0.58626662  0.66487614  1
  Se  Se16  1  0.11209210  0.35969683  0.42345902  1
  Se  Se17  1  0.09401753  0.37164191  0.65762647  1
  Se  Se18  1  0.88453700  0.63734700  0.31138600  1
  Se  Se19  1  0.87007199  0.63612535  0.54821581  1
  Se  Se20  1  0.73273352  0.13508219  0.33414578  1
  Se  Se21  1  0.72027841  0.12727757  0.57032753  1
  Se  Se22  1  0.25639041  0.86433846  0.39965958  1
  Se  Se23  1  0.24821035  0.86577097  0.63569315  1
  Se  Se24  1  0.39326800  0.73478000  0.28166600  1
  Se  Se25  1  0.38487770  0.73541010  0.51678742  1
  Se  Se26  1  0.60201267  0.26378506  0.45389050  1
  Se  Se27  1  0.54426380  0.28007342  0.69727925  1
  Se  Se28  1  0.21444700  0.18780600  0.29890600  1
  Se  Se29  1  0.20165032  0.18693182  0.53342628  1
  Se  Se30  1  0.78117835  0.81128346  0.43705096  1
  Se  Se31  1  0.77106363  0.77554682  0.67686844  1
  N  N32  1  0.93036488  0.14788286  0.75372646  1
  H  H33  1  0.08157508  0.14752693  0.75959547  1
  H  H34  1  0.89224627  0.27585711  0.77240592  1
  H  H35  1  0.86118283  0.02673837  0.76996796  1
