# generated using pymatgen
data_Ag26HPtO
_symmetry_space_group_name_H-M   'P 1'
_cell_length_a   8.60496519
_cell_length_b   8.60496881
_cell_length_c   23.47925300
_cell_angle_alpha   90.00483404
_cell_angle_beta   93.49762144
_cell_angle_gamma   119.99565775
_symmetry_Int_Tables_number   1
_chemical_formula_structural   Ag26HPtO
_chemical_formula_sum   'Ag26 H1 Pt1 O1'
_cell_volume   1501.93330901
_cell_formula_units_Z   1
loop_
 _symmetry_equiv_pos_site_id
 _symmetry_equiv_pos_as_xyz
  1  'x, y, z'
loop_
 _atom_site_type_symbol
 _atom_site_label
 _atom_site_symmetry_multiplicity
 _atom_site_fract_x
 _atom_site_fract_y
 _atom_site_fract_z
 _atom_site_occupancy
  Ag  Ag0  1  0.20000000  0.26666700  0.40000000  1
  Ag  Ag1  1  0.20000000  0.60000000  0.40000000  1
  Ag  Ag2  1  0.20000000  0.93333300  0.40000000  1
  Ag  Ag3  1  0.53333300  0.26666700  0.40000000  1
  Ag  Ag4  1  0.53333300  0.60000000  0.40000000  1
  Ag  Ag5  1  0.53333300  0.93333300  0.40000000  1
  Ag  Ag6  1  0.86666700  0.26666700  0.40000000  1
  Ag  Ag7  1  0.86666700  0.60000000  0.40000000  1
  Ag  Ag8  1  0.86666700  0.93333300  0.40000000  1
  Ag  Ag9  1  0.33519951  0.16554787  0.50191818  1
  Ag  Ag10  1  0.33351499  0.50188530  0.50082674  1
  Ag  Ag11  1  0.33668701  0.83641599  0.50439885  1
  Ag  Ag12  1  0.66606158  0.16643923  0.50448451  1
  Ag  Ag13  1  0.66980084  0.50171941  0.50089696  1
  Ag  Ag14  1  0.66893139  0.83538547  0.50268621  1
  Ag  Ag15  1  0.00110103  0.16822975  0.50200249  1
  Ag  Ag16  1  0.00155920  0.50062468  0.50326495  1
  Ag  Ag17  1  0.00229121  0.83482662  0.50341026  1
  Ag  Ag18  1  0.13789433  0.07334395  0.60349567  1
  Ag  Ag19  1  0.13963264  0.40310395  0.60490951  1
  Ag  Ag20  1  0.13422623  0.73361658  0.60471586  1
  Ag  Ag21  1  0.47019195  0.07174803  0.60878954  1
  Ag  Ag22  1  0.47105197  0.73262851  0.60491007  1
  Ag  Ag23  1  0.80497199  0.06944842  0.60419984  1
  Ag  Ag24  1  0.80040031  0.40347488  0.60493098  1
  Ag  Ag25  1  0.80148949  0.73396581  0.60529397  1
  Pt  Pt26  1  0.46884245  0.40567352  0.59555852  1
  O  O27  1  0.42122727  0.04655741  0.70068845  1
  H  H28  1  0.53913829  0.07689579  0.71894209  1
