# generated using pymatgen
data_HPd27CO
_symmetry_space_group_name_H-M   'P 1'
_cell_length_a   8.25688963
_cell_length_b   8.25682385
_cell_length_c   22.52889700
_cell_angle_alpha   86.49742100
_cell_angle_beta   86.49797035
_cell_angle_gamma   59.99972739
_symmetry_Int_Tables_number   1
_chemical_formula_structural   HPd27CO
_chemical_formula_sum   'Pd27 H1 C1 O1'
_cell_volume   1326.83127031
_cell_formula_units_Z   1
loop_
 _symmetry_equiv_pos_site_id
 _symmetry_equiv_pos_as_xyz
  1  'x, y, z'
loop_
 _atom_site_type_symbol
 _atom_site_label
 _atom_site_symmetry_multiplicity
 _atom_site_fract_x
 _atom_site_fract_y
 _atom_site_fract_z
 _atom_site_occupancy
  Pd  Pd0  1  0.06666700  0.06666600  0.40000000  1
  Pd  Pd1  1  0.06666700  0.39999900  0.40000000  1
  Pd  Pd2  1  0.06666700  0.73333300  0.40000000  1
  Pd  Pd3  1  0.40000000  0.06666600  0.40000000  1
  Pd  Pd4  1  0.40000000  0.39999900  0.40000000  1
  Pd  Pd5  1  0.40000000  0.73333300  0.40000000  1
  Pd  Pd6  1  0.73333300  0.06666600  0.40000000  1
  Pd  Pd7  1  0.73333300  0.39999900  0.40000000  1
  Pd  Pd8  1  0.73333300  0.73333300  0.40000000  1
  Pd  Pd9  1  0.16824142  0.16952728  0.50084722  1
  Pd  Pd10  1  0.16801343  0.50348522  0.50253758  1
  Pd  Pd11  1  0.16805972  0.83528285  0.50274109  1
  Pd  Pd12  1  0.50200759  0.16964146  0.50256516  1
  Pd  Pd13  1  0.50125419  0.50271006  0.50214248  1
  Pd  Pd14  1  0.50191843  0.83600387  0.50233571  1
  Pd  Pd15  1  0.83385416  0.16951613  0.50265125  1
  Pd  Pd16  1  0.83464226  0.50339521  0.50224167  1
  Pd  Pd17  1  0.83476869  0.83620912  0.50218456  1
  Pd  Pd18  1  0.26769146  0.27045895  0.60296081  1
  Pd  Pd19  1  0.26708647  0.60509299  0.60850525  1
  Pd  Pd20  1  0.26778994  0.94133289  0.60285587  1
  Pd  Pd21  1  0.60245602  0.27046342  0.60861120  1
  Pd  Pd22  1  0.60393675  0.60664225  0.60649057  1
  Pd  Pd23  1  0.60286674  0.93901722  0.60412407  1
  Pd  Pd24  1  0.93888458  0.27048284  0.60273414  1
  Pd  Pd25  1  0.93601545  0.60549117  0.60425095  1
  Pd  Pd26  1  0.93516283  0.93829792  0.60421035  1
  C  C27  1  0.48703357  0.49311837  0.65951410  1
  H  H28  1  0.57174669  0.51000242  0.73633490  1
  O  O29  1  0.47693510  0.48809652  0.71879290  1
