# generated using pymatgen
data_Mo12HSe16
_symmetry_space_group_name_H-M   'P 1'
_cell_length_a   6.61417350
_cell_length_b   6.61583473
_cell_length_c   28.23028900
_cell_angle_alpha   91.53841057
_cell_angle_beta   91.51120564
_cell_angle_gamma   91.52367391
_symmetry_Int_Tables_number   1
_chemical_formula_structural   Mo12HSe16
_chemical_formula_sum   'Mo12 H1 Se16'
_cell_volume   1233.97341125
_cell_formula_units_Z   1
loop_
 _symmetry_equiv_pos_site_id
 _symmetry_equiv_pos_as_xyz
  1  'x, y, z'
loop_
 _atom_site_type_symbol
 _atom_site_label
 _atom_site_symmetry_multiplicity
 _atom_site_fract_x
 _atom_site_fract_y
 _atom_site_fract_z
 _atom_site_occupancy
  Mo  Mo0  1  0.22064400  0.54530100  0.34680900  1
  Mo  Mo1  1  0.21623660  0.54408617  0.58187581  1
  Mo  Mo2  1  0.76982260  0.45291044  0.38706813  1
  Mo  Mo3  1  0.78248482  0.44242567  0.62281980  1
  Mo  Mo4  1  0.41307563  0.22785098  0.37844050  1
  Mo  Mo5  1  0.42055048  0.20438517  0.61241995  1
  Mo  Mo6  1  0.57804435  0.77325130  0.35720892  1
  Mo  Mo7  1  0.58268297  0.78161108  0.59116558  1
  Mo  Mo8  1  0.54531000  0.41281400  0.30171000  1
  Mo  Mo9  1  0.54024273  0.41470832  0.53839038  1
  Mo  Mo10  1  0.44704371  0.58570421  0.43355463  1
  Mo  Mo11  1  0.46112558  0.56853759  0.66470624  1
  Se  Se12  1  0.12114177  0.37761366  0.42634225  1
  Se  Se13  1  0.13056316  0.36475465  0.65932880  1
  Se  Se14  1  0.87245300  0.62115500  0.30846200  1
  Se  Se15  1  0.86883896  0.62251394  0.54482110  1
  Se  Se16  1  0.75031900  0.12757300  0.33876000  1
  Se  Se17  1  0.75048684  0.12267744  0.57172160  1
  Se  Se18  1  0.24369404  0.87278120  0.39680371  1
  Se  Se19  1  0.25584532  0.86330251  0.63462435  1
  Se  Se20  1  0.37880700  0.75023000  0.27992500  1
  Se  Se21  1  0.37007555  0.75270883  0.51570681  1
  Se  Se22  1  0.61852758  0.25229305  0.45572381  1
  Se  Se23  1  0.62407940  0.23736776  0.68962904  1
  Se  Se24  1  0.21114700  0.21116100  0.29951300  1
  Se  Se25  1  0.20390458  0.20632744  0.53689487  1
  Se  Se26  1  0.77881692  0.78492366  0.43605874  1
  Se  Se27  1  0.79144783  0.78183814  0.66762705  1
  H  H28  1  0.43801220  0.63123183  0.72562513  1
