# generated using pymatgen
data_Fe4Mo12HSe16
_symmetry_space_group_name_H-M   'P 1'
_cell_length_a   6.73059675
_cell_length_b   6.68252955
_cell_length_c   28.41042900
_cell_angle_alpha   94.71078376
_cell_angle_beta   91.18717718
_cell_angle_gamma   96.76332947
_symmetry_Int_Tables_number   1
_chemical_formula_structural   Fe4Mo12HSe16
_chemical_formula_sum   'Fe4 Mo12 H1 Se16'
_cell_volume   1264.05235895
_cell_formula_units_Z   1
loop_
 _symmetry_equiv_pos_site_id
 _symmetry_equiv_pos_as_xyz
  1  'x, y, z'
loop_
 _atom_site_type_symbol
 _atom_site_label
 _atom_site_symmetry_multiplicity
 _atom_site_fract_x
 _atom_site_fract_y
 _atom_site_fract_z
 _atom_site_occupancy
  Fe  Fe0  1  0.92539115  0.15115233  0.48130040  1
  Fe  Fe1  1  0.83020534  0.13449095  0.66106635  1
  Fe  Fe2  1  0.08366100  0.85003700  0.25310200  1
  Fe  Fe3  1  0.09329108  0.85585780  0.48724256  1
  Mo  Mo4  1  0.23194346  0.53743562  0.34804525  1
  Mo  Mo5  1  0.23778905  0.54646524  0.58618388  1
  Mo  Mo6  1  0.76961156  0.46120809  0.38775534  1
  Mo  Mo7  1  0.77671104  0.46981750  0.62221786  1
  Mo  Mo8  1  0.41162318  0.22922839  0.37763808  1
  Mo  Mo9  1  0.41607170  0.23644369  0.61719583  1
  Mo  Mo10  1  0.59171869  0.77380420  0.35823500  1
  Mo  Mo11  1  0.59546798  0.77531407  0.59563032  1
  Mo  Mo12  1  0.54876300  0.41297700  0.30450800  1
  Mo  Mo13  1  0.55288349  0.41838664  0.54130029  1
  Mo  Mo14  1  0.45231615  0.58890676  0.43218229  1
  Mo  Mo15  1  0.45431003  0.58872582  0.66790007  1
  Se  Se16  1  0.11739402  0.36347317  0.42441630  1
  Se  Se17  1  0.11886678  0.37520364  0.66230732  1
  Se  Se18  1  0.88453700  0.63734700  0.31138600  1
  Se  Se19  1  0.89110897  0.64616093  0.54831001  1
  Se  Se20  1  0.73412124  0.13606467  0.33445856  1
  Se  Se21  1  0.73972351  0.13389362  0.56954281  1
  Se  Se22  1  0.26196281  0.86642652  0.39983636  1
  Se  Se23  1  0.27747627  0.87373471  0.64003771  1
  Se  Se24  1  0.39326800  0.73478000  0.28166600  1
  Se  Se25  1  0.39725513  0.73811534  0.51891169  1
  Se  Se26  1  0.60930919  0.26625422  0.45480255  1
  Se  Se27  1  0.59378360  0.30210016  0.70866154  1
  Se  Se28  1  0.21444700  0.18780600  0.29890600  1
  Se  Se29  1  0.21801075  0.19599557  0.53767524  1
  Se  Se30  1  0.78806872  0.81270389  0.43730308  1
  Se  Se31  1  0.79578646  0.78981689  0.67931162  1
  H  H32  1  0.43621084  0.15226903  0.72765054  1
