# generated using pymatgen
data_Fe4Mo12H3Se16N
_symmetry_space_group_name_H-M   'P 1'
_cell_length_a   6.73059675
_cell_length_b   6.68252955
_cell_length_c   28.41042900
_cell_angle_alpha   94.71078376
_cell_angle_beta   91.18717718
_cell_angle_gamma   96.76332947
_symmetry_Int_Tables_number   1
_chemical_formula_structural   Fe4Mo12H3Se16N
_chemical_formula_sum   'Fe4 Mo12 H3 Se16 N1'
_cell_volume   1264.05235895
_cell_formula_units_Z   1
loop_
 _symmetry_equiv_pos_site_id
 _symmetry_equiv_pos_as_xyz
  1  'x, y, z'
loop_
 _atom_site_type_symbol
 _atom_site_label
 _atom_site_symmetry_multiplicity
 _atom_site_fract_x
 _atom_site_fract_y
 _atom_site_fract_z
 _atom_site_occupancy
  Fe  Fe0  1  0.92343095  0.14713896  0.47996596  1
  Fe  Fe1  1  0.86309354  0.09900583  0.65435130  1
  Fe  Fe2  1  0.08366100  0.85003700  0.25310200  1
  Fe  Fe3  1  0.08964053  0.84908898  0.48768359  1
  Mo  Mo4  1  0.23146584  0.53693577  0.34774348  1
  Mo  Mo5  1  0.23562933  0.53363198  0.58569275  1
  Mo  Mo6  1  0.76943726  0.45962439  0.38737823  1
  Mo  Mo7  1  0.77023865  0.44995302  0.62319739  1
  Mo  Mo8  1  0.41132042  0.22737747  0.37720064  1
  Mo  Mo9  1  0.40956525  0.22057960  0.61475023  1
  Mo  Mo10  1  0.59131866  0.77324178  0.35815732  1
  Mo  Mo11  1  0.59434242  0.76067663  0.59507904  1
  Mo  Mo12  1  0.54876300  0.41297700  0.30450800  1
  Mo  Mo13  1  0.55092865  0.40852780  0.54042060  1
  Mo  Mo14  1  0.45171284  0.58676203  0.43187746  1
  Mo  Mo15  1  0.45846064  0.57637452  0.66886047  1
  Se  Se16  1  0.11694909  0.36216446  0.42365615  1
  Se  Se17  1  0.12207583  0.36776320  0.66207000  1
  Se  Se18  1  0.88453700  0.63734700  0.31138600  1
  Se  Se19  1  0.88868998  0.63331348  0.54835334  1
  Se  Se20  1  0.73401890  0.13504692  0.33393821  1
  Se  Se21  1  0.73460853  0.11875552  0.56820860  1
  Se  Se22  1  0.26172921  0.86480248  0.39984901  1
  Se  Se23  1  0.27841932  0.85863543  0.63943022  1
  Se  Se24  1  0.39326800  0.73478000  0.28166600  1
  Se  Se25  1  0.39385265  0.72879622  0.51858472  1
  Se  Se26  1  0.60834429  0.26319351  0.45398161  1
  Se  Se27  1  0.60436474  0.26207063  0.69485943  1
  Se  Se28  1  0.21444700  0.18780600  0.29890600  1
  Se  Se29  1  0.21457294  0.18713781  0.53512852  1
  Se  Se30  1  0.78747726  0.80912133  0.43709005  1
  Se  Se31  1  0.80481305  0.77009882  0.67874750  1
  N  N32  1  0.42370464  0.63321205  0.74821190  1
  H  H33  1  0.56196806  0.66834982  0.76502832  1
  H  H34  1  0.33877709  0.74504592  0.75961668  1
  H  H35  1  0.36058015  0.50264461  0.76165571  1
