# generated using pymatgen
data_Fe4Mo12HSe16
_symmetry_space_group_name_H-M   'P 1'
_cell_length_a   6.73059675
_cell_length_b   6.68252955
_cell_length_c   28.41042900
_cell_angle_alpha   94.71078376
_cell_angle_beta   91.18717718
_cell_angle_gamma   96.76332947
_symmetry_Int_Tables_number   1
_chemical_formula_structural   Fe4Mo12HSe16
_chemical_formula_sum   'Fe4 Mo12 H1 Se16'
_cell_volume   1264.05235895
_cell_formula_units_Z   1
loop_
 _symmetry_equiv_pos_site_id
 _symmetry_equiv_pos_as_xyz
  1  'x, y, z'
loop_
 _atom_site_type_symbol
 _atom_site_label
 _atom_site_symmetry_multiplicity
 _atom_site_fract_x
 _atom_site_fract_y
 _atom_site_fract_z
 _atom_site_occupancy
  Fe  Fe0  1  0.90784215  0.15497504  0.48015726  1
  Fe  Fe1  1  0.85067383  0.11042508  0.65664505  1
  Fe  Fe2  1  0.08366100  0.85003700  0.25310200  1
  Fe  Fe3  1  0.10034985  0.84527323  0.49068871  1
  Mo  Mo4  1  0.23138958  0.53840094  0.34833976  1
  Mo  Mo5  1  0.22803538  0.53631497  0.58533156  1
  Mo  Mo6  1  0.76871269  0.46134782  0.38805945  1
  Mo  Mo7  1  0.77011535  0.45542181  0.62389293  1
  Mo  Mo8  1  0.41022202  0.22772445  0.37750614  1
  Mo  Mo9  1  0.40626805  0.22340069  0.61485274  1
  Mo  Mo10  1  0.59066913  0.77388269  0.35888310  1
  Mo  Mo11  1  0.59111185  0.76752379  0.59552040  1
  Mo  Mo12  1  0.54876300  0.41297700  0.30450800  1
  Mo  Mo13  1  0.54697642  0.41153283  0.54119249  1
  Mo  Mo14  1  0.45108024  0.58894306  0.43266321  1
  Mo  Mo15  1  0.45230746  0.58492967  0.66886962  1
  Se  Se16  1  0.11569841  0.36126503  0.42429338  1
  Se  Se17  1  0.11989764  0.37094004  0.66245391  1
  Se  Se18  1  0.88453700  0.63734700  0.31138600  1
  Se  Se19  1  0.88509504  0.63859522  0.54870713  1
  Se  Se20  1  0.73327702  0.13585893  0.33466254  1
  Se  Se21  1  0.73657351  0.12483579  0.56829887  1
  Se  Se22  1  0.25922121  0.86559200  0.40104378  1
  Se  Se23  1  0.27209495  0.86310642  0.63896970  1
  Se  Se24  1  0.39326800  0.73478000  0.28166600  1
  Se  Se25  1  0.39693930  0.73185615  0.51903794  1
  Se  Se26  1  0.60203499  0.26522331  0.45464180  1
  Se  Se27  1  0.59632971  0.27666193  0.69647675  1
  Se  Se28  1  0.21444700  0.18780600  0.29890600  1
  Se  Se29  1  0.20791644  0.18606175  0.53440800  1
  Se  Se30  1  0.79103288  0.81211601  0.43894484  1
  Se  Se31  1  0.79739820  0.77769047  0.67949245  1
  H  H32  1  0.41809478  0.65514383  0.72857899  1
