# generated using pymatgen
data_Fe2Mo12HS16
_symmetry_space_group_name_H-M   'P 1'
_cell_length_a   6.45357383
_cell_length_b   6.40729292
_cell_length_c   27.84326400
_cell_angle_alpha   93.27559587
_cell_angle_beta   96.42128096
_cell_angle_gamma   96.53695481
_symmetry_Int_Tables_number   1
_chemical_formula_structural   Fe2Mo12HS16
_chemical_formula_sum   'Fe2 Mo12 H1 S16'
_cell_volume   1133.80606000
_cell_formula_units_Z   1
loop_
 _symmetry_equiv_pos_site_id
 _symmetry_equiv_pos_as_xyz
  1  'x, y, z'
loop_
 _atom_site_type_symbol
 _atom_site_label
 _atom_site_symmetry_multiplicity
 _atom_site_fract_x
 _atom_site_fract_y
 _atom_site_fract_z
 _atom_site_occupancy
  Fe  Fe0  1  0.95090547  0.15479976  0.46088562  1
  Fe  Fe1  1  0.84983902  0.11889670  0.64780455  1
  Mo  Mo2  1  0.21324400  0.54241800  0.34209900  1
  Mo  Mo3  1  0.23157880  0.54902744  0.57509143  1
  Mo  Mo4  1  0.79859373  0.45788495  0.38855252  1
  Mo  Mo5  1  0.79961715  0.47345399  0.61521073  1
  Mo  Mo6  1  0.41240852  0.21986272  0.37463756  1
  Mo  Mo7  1  0.42452161  0.22062125  0.60716176  1
  Mo  Mo8  1  0.59439000  0.78338100  0.35611600  1
  Mo  Mo9  1  0.60176714  0.78782155  0.58760385  1
  Mo  Mo10  1  0.53839000  0.41017300  0.30039200  1
  Mo  Mo11  1  0.55029037  0.42276687  0.53106500  1
  Mo  Mo12  1  0.46855534  0.60143052  0.43218409  1
  Mo  Mo13  1  0.47495988  0.58234033  0.66122036  1
  S  S14  1  0.14717786  0.36895746  0.41734189  1
  S  S15  1  0.14323123  0.36041032  0.64880210  1
  S  S16  1  0.86398200  0.63520500  0.31550800  1
  S  S17  1  0.87956395  0.65359839  0.54495377  1
  S  S18  1  0.72141400  0.13929400  0.33709200  1
  S  S19  1  0.73513633  0.14077096  0.56522061  1
  S  S20  1  0.27977789  0.86240978  0.39360669  1
  S  S21  1  0.29397271  0.86332322  0.62965981  1
  S  S22  1  0.37280800  0.72589200  0.28016400  1
  S  S23  1  0.38022845  0.73496832  0.51168118  1
  S  S24  1  0.62990243  0.27477396  0.45209099  1
  S  S25  1  0.62117619  0.27182237  0.69255885  1
  S  S26  1  0.19164500  0.20201400  0.29537700  1
  S  S27  1  0.20537096  0.21146218  0.52739213  1
  S  S28  1  0.81884007  0.80670918  0.43504105  1
  S  S29  1  0.81415705  0.78583906  0.66985148  1
  H  H30  1  0.48542915  0.13030230  0.71287100  1
