# generated using pymatgen
data_Pd27N2
_symmetry_space_group_name_H-M   'P 1'
_cell_length_a   8.25688963
_cell_length_b   8.25682385
_cell_length_c   22.52889700
_cell_angle_alpha   86.49742100
_cell_angle_beta   86.49797035
_cell_angle_gamma   59.99972739
_symmetry_Int_Tables_number   1
_chemical_formula_structural   Pd27N2
_chemical_formula_sum   'Pd27 N2'
_cell_volume   1326.83127031
_cell_formula_units_Z   1
loop_
 _symmetry_equiv_pos_site_id
 _symmetry_equiv_pos_as_xyz
  1  'x, y, z'
loop_
 _atom_site_type_symbol
 _atom_site_label
 _atom_site_symmetry_multiplicity
 _atom_site_fract_x
 _atom_site_fract_y
 _atom_site_fract_z
 _atom_site_occupancy
  Pd  Pd0  1  0.06666700  0.06666600  0.40000000  1
  Pd  Pd1  1  0.06666700  0.39999900  0.40000000  1
  Pd  Pd2  1  0.06666700  0.73333300  0.40000000  1
  Pd  Pd3  1  0.40000000  0.06666600  0.40000000  1
  Pd  Pd4  1  0.40000000  0.39999900  0.40000000  1
  Pd  Pd5  1  0.40000000  0.73333300  0.40000000  1
  Pd  Pd6  1  0.73333300  0.06666600  0.40000000  1
  Pd  Pd7  1  0.73333300  0.39999900  0.40000000  1
  Pd  Pd8  1  0.73333300  0.73333300  0.40000000  1
  Pd  Pd9  1  0.16662608  0.16662232  0.50082573  1
  Pd  Pd10  1  0.16672799  0.50001167  0.50081840  1
  Pd  Pd11  1  0.16679430  0.83319181  0.50103613  1
  Pd  Pd12  1  0.50001521  0.16672452  0.50081845  1
  Pd  Pd13  1  0.50037401  0.50036922  0.50277737  1
  Pd  Pd14  1  0.50031247  0.83205947  0.50260882  1
  Pd  Pd15  1  0.83319578  0.16679052  0.50103588  1
  Pd  Pd16  1  0.83206274  0.50030840  0.50260865  1
  Pd  Pd17  1  0.83322827  0.83322398  0.50098132  1
  Pd  Pd18  1  0.26651727  0.26651006  0.60241367  1
  Pd  Pd19  1  0.26460392  0.59974237  0.60257363  1
  Pd  Pd20  1  0.26444821  0.93530034  0.60246196  1
  Pd  Pd21  1  0.59975054  0.26459552  0.60257382  1
  Pd  Pd22  1  0.59943148  0.59942351  0.60703508  1
  Pd  Pd23  1  0.59976956  0.93558639  0.60238123  1
  Pd  Pd24  1  0.93530851  0.26443968  0.60246196  1
  Pd  Pd25  1  0.93559431  0.59976147  0.60238118  1
  Pd  Pd26  1  0.93322262  0.93321455  0.60220839  1
  N  N27  1  0.59423097  0.59421956  0.69466226  1
  N  N28  1  0.59346073  0.59344905  0.74432834  1
