# generated using pymatgen
data_Fe2Mo12HS16
_symmetry_space_group_name_H-M   'P 1'
_cell_length_a   6.45357383
_cell_length_b   6.40729292
_cell_length_c   27.84326400
_cell_angle_alpha   93.27559587
_cell_angle_beta   96.42128096
_cell_angle_gamma   96.53695481
_symmetry_Int_Tables_number   1
_chemical_formula_structural   Fe2Mo12HS16
_chemical_formula_sum   'Fe2 Mo12 H1 S16'
_cell_volume   1133.80606000
_cell_formula_units_Z   1
loop_
 _symmetry_equiv_pos_site_id
 _symmetry_equiv_pos_as_xyz
  1  'x, y, z'
loop_
 _atom_site_type_symbol
 _atom_site_label
 _atom_site_symmetry_multiplicity
 _atom_site_fract_x
 _atom_site_fract_y
 _atom_site_fract_z
 _atom_site_occupancy
  Fe  Fe0  1  0.94211323  0.15446916  0.46078943  1
  Fe  Fe1  1  0.84723808  0.12069916  0.64761044  1
  Mo  Mo2  1  0.21324400  0.54241800  0.34209900  1
  Mo  Mo3  1  0.22534406  0.55097943  0.57521078  1
  Mo  Mo4  1  0.79595063  0.45801202  0.38851423  1
  Mo  Mo5  1  0.79390696  0.47496623  0.61531567  1
  Mo  Mo6  1  0.41107827  0.21967481  0.37461202  1
  Mo  Mo7  1  0.41843320  0.22274808  0.60722277  1
  Mo  Mo8  1  0.59439000  0.78338100  0.35611600  1
  Mo  Mo9  1  0.59563502  0.78924763  0.58753939  1
  Mo  Mo10  1  0.53839000  0.41017300  0.30039200  1
  Mo  Mo11  1  0.54383096  0.42417199  0.53120034  1
  Mo  Mo12  1  0.46480306  0.60185776  0.43222259  1
  Mo  Mo13  1  0.46977859  0.58408665  0.66112608  1
  S  S14  1  0.14396584  0.36665581  0.41725217  1
  S  S15  1  0.13807888  0.36347195  0.64920566  1
  S  S16  1  0.86398200  0.63520500  0.31550800  1
  S  S17  1  0.87317066  0.65510890  0.54505903  1
  S  S18  1  0.72141400  0.13929400  0.33709200  1
  S  S19  1  0.72829084  0.14221824  0.56532521  1
  S  S20  1  0.27845093  0.86262457  0.39339244  1
  S  S21  1  0.28816206  0.86533166  0.62987303  1
  S  S22  1  0.37280800  0.72589200  0.28016400  1
  S  S23  1  0.37367812  0.73611260  0.51160612  1
  S  S24  1  0.62489557  0.27660032  0.45220381  1
  S  S25  1  0.61887628  0.27435782  0.69263445  1
  S  S26  1  0.19164500  0.20201400  0.29537700  1
  S  S27  1  0.19818581  0.21362139  0.52760220  1
  S  S28  1  0.81539422  0.80661938  0.43531606  1
  S  S29  1  0.80927504  0.78837193  0.66999138  1
  H  H30  1  0.48406810  0.12944678  0.71235732  1
