# generated using pymatgen
data_Ag26HPtO
_symmetry_space_group_name_H-M   'P 1'
_cell_length_a   8.60496519
_cell_length_b   8.60496881
_cell_length_c   23.47925300
_cell_angle_alpha   90.00483404
_cell_angle_beta   93.49762144
_cell_angle_gamma   119.99565775
_symmetry_Int_Tables_number   1
_chemical_formula_structural   Ag26HPtO
_chemical_formula_sum   'Ag26 H1 Pt1 O1'
_cell_volume   1501.93330901
_cell_formula_units_Z   1
loop_
 _symmetry_equiv_pos_site_id
 _symmetry_equiv_pos_as_xyz
  1  'x, y, z'
loop_
 _atom_site_type_symbol
 _atom_site_label
 _atom_site_symmetry_multiplicity
 _atom_site_fract_x
 _atom_site_fract_y
 _atom_site_fract_z
 _atom_site_occupancy
  Ag  Ag0  1  0.20000000  0.26666700  0.40000000  1
  Ag  Ag1  1  0.20000000  0.60000000  0.40000000  1
  Ag  Ag2  1  0.20000000  0.93333300  0.40000000  1
  Ag  Ag3  1  0.53333300  0.26666700  0.40000000  1
  Ag  Ag4  1  0.53333300  0.60000000  0.40000000  1
  Ag  Ag5  1  0.53333300  0.93333300  0.40000000  1
  Ag  Ag6  1  0.86666700  0.26666700  0.40000000  1
  Ag  Ag7  1  0.86666700  0.60000000  0.40000000  1
  Ag  Ag8  1  0.86666700  0.93333300  0.40000000  1
  Ag  Ag9  1  0.33692526  0.16845853  0.50137773  1
  Ag  Ag10  1  0.33545607  0.50393080  0.50033421  1
  Ag  Ag11  1  0.33863769  0.83882788  0.50342654  1
  Ag  Ag12  1  0.66939231  0.16946021  0.50287260  1
  Ag  Ag13  1  0.67171642  0.50441324  0.50050318  1
  Ag  Ag14  1  0.67118844  0.83805408  0.50183585  1
  Ag  Ag15  1  0.00247909  0.16966973  0.50150525  1
  Ag  Ag16  1  0.00372225  0.50282230  0.50222827  1
  Ag  Ag17  1  0.00374514  0.83688793  0.50246075  1
  Ag  Ag18  1  0.14122680  0.07539328  0.60275512  1
  Ag  Ag19  1  0.14232162  0.40573161  0.60391137  1
  Ag  Ag20  1  0.13768926  0.73705829  0.60283196  1
  Ag  Ag21  1  0.47465657  0.07645328  0.60746933  1
  Ag  Ag22  1  0.47293417  0.73480998  0.60305175  1
  Ag  Ag23  1  0.80723403  0.07262177  0.60271752  1
  Ag  Ag24  1  0.80377542  0.40737417  0.60342518  1
  Ag  Ag25  1  0.80416150  0.73752221  0.60418948  1
  Pt  Pt26  1  0.47151480  0.40668036  0.59525884  1
  O  O27  1  0.44173964  0.05034811  0.71571393  1
  H  H28  1  0.50163389  0.08623675  0.75418628  1
