# generated using pymatgen
data_Fe2Mo12HS16
_symmetry_space_group_name_H-M   'P 1'
_cell_length_a   6.45357383
_cell_length_b   6.40729292
_cell_length_c   27.84326400
_cell_angle_alpha   93.27559587
_cell_angle_beta   96.42128096
_cell_angle_gamma   96.53695481
_symmetry_Int_Tables_number   1
_chemical_formula_structural   Fe2Mo12HS16
_chemical_formula_sum   'Fe2 Mo12 H1 S16'
_cell_volume   1133.80606000
_cell_formula_units_Z   1
loop_
 _symmetry_equiv_pos_site_id
 _symmetry_equiv_pos_as_xyz
  1  'x, y, z'
loop_
 _atom_site_type_symbol
 _atom_site_label
 _atom_site_symmetry_multiplicity
 _atom_site_fract_x
 _atom_site_fract_y
 _atom_site_fract_z
 _atom_site_occupancy
  Fe  Fe0  1  0.94075268  0.15152422  0.46047406  1
  Fe  Fe1  1  0.88626187  0.11093351  0.65543278  1
  Mo  Mo2  1  0.21324400  0.54241800  0.34209900  1
  Mo  Mo3  1  0.21484883  0.54141751  0.57566867  1
  Mo  Mo4  1  0.79450539  0.45825742  0.38849710  1
  Mo  Mo5  1  0.78789398  0.45436788  0.61799671  1
  Mo  Mo6  1  0.41045230  0.21955562  0.37467214  1
  Mo  Mo7  1  0.40911951  0.20913541  0.60721870  1
  Mo  Mo8  1  0.59439000  0.78338100  0.35611600  1
  Mo  Mo9  1  0.59335110  0.78054760  0.58751946  1
  Mo  Mo10  1  0.53839000  0.41017300  0.30039200  1
  Mo  Mo11  1  0.53804414  0.41261045  0.53172500  1
  Mo  Mo12  1  0.46276256  0.60046760  0.43251920  1
  Mo  Mo13  1  0.47244115  0.58312455  0.66344544  1
  S  S14  1  0.14242755  0.36544648  0.41714631  1
  S  S15  1  0.14412515  0.36735577  0.65088205  1
  S  S16  1  0.86398200  0.63520500  0.31550800  1
  S  S17  1  0.86603543  0.63904636  0.54638346  1
  S  S18  1  0.72141400  0.13929400  0.33709200  1
  S  S19  1  0.71844677  0.13160026  0.56539437  1
  S  S20  1  0.27850662  0.86210324  0.39364887  1
  S  S21  1  0.28776926  0.85621831  0.62971551  1
  S  S22  1  0.37280800  0.72589200  0.28016400  1
  S  S23  1  0.36868059  0.72491059  0.51215741  1
  S  S24  1  0.62365588  0.27537844  0.45229071  1
  S  S25  1  0.62787646  0.27071438  0.68672729  1
  S  S26  1  0.19164500  0.20201400  0.29537700  1
  S  S27  1  0.19008284  0.20533540  0.52743624  1
  S  S28  1  0.81276115  0.80393141  0.43604690  1
  S  S29  1  0.81784816  0.77567154  0.67004800  1
  H  H30  1  0.45036257  0.65321329  0.72444548  1
