# generated using pymatgen
data_HPd27CO
_symmetry_space_group_name_H-M   'P 1'
_cell_length_a   8.25688963
_cell_length_b   8.25682385
_cell_length_c   22.52889700
_cell_angle_alpha   86.49742100
_cell_angle_beta   86.49797035
_cell_angle_gamma   59.99972739
_symmetry_Int_Tables_number   1
_chemical_formula_structural   HPd27CO
_chemical_formula_sum   'Pd27 H1 C1 O1'
_cell_volume   1326.83127031
_cell_formula_units_Z   1
loop_
 _symmetry_equiv_pos_site_id
 _symmetry_equiv_pos_as_xyz
  1  'x, y, z'
loop_
 _atom_site_type_symbol
 _atom_site_label
 _atom_site_symmetry_multiplicity
 _atom_site_fract_x
 _atom_site_fract_y
 _atom_site_fract_z
 _atom_site_occupancy
  Pd  Pd0  1  0.06666700  0.06666600  0.40000000  1
  Pd  Pd1  1  0.06666700  0.39999900  0.40000000  1
  Pd  Pd2  1  0.06666700  0.73333300  0.40000000  1
  Pd  Pd3  1  0.40000000  0.06666600  0.40000000  1
  Pd  Pd4  1  0.40000000  0.39999900  0.40000000  1
  Pd  Pd5  1  0.40000000  0.73333300  0.40000000  1
  Pd  Pd6  1  0.73333300  0.06666600  0.40000000  1
  Pd  Pd7  1  0.73333300  0.39999900  0.40000000  1
  Pd  Pd8  1  0.73333300  0.73333300  0.40000000  1
  Pd  Pd9  1  0.16673092  0.16716692  0.50187513  1
  Pd  Pd10  1  0.16546251  0.50080792  0.50208012  1
  Pd  Pd11  1  0.16628903  0.83392753  0.50189578  1
  Pd  Pd12  1  0.49902225  0.16842485  0.50136831  1
  Pd  Pd13  1  0.50049896  0.50121845  0.50344925  1
  Pd  Pd14  1  0.49967811  0.83221074  0.50275783  1
  Pd  Pd15  1  0.83266804  0.16734413  0.50156456  1
  Pd  Pd16  1  0.83167438  0.50117367  0.50240007  1
  Pd  Pd17  1  0.83321611  0.83380501  0.50164178  1
  Pd  Pd18  1  0.26655466  0.26776139  0.60418018  1
  Pd  Pd19  1  0.26645952  0.60126052  0.60377371  1
  Pd  Pd20  1  0.26520793  0.93502871  0.60397175  1
  Pd  Pd21  1  0.59943759  0.26766702  0.60378337  1
  Pd  Pd22  1  0.60209579  0.60169462  0.61076029  1
  Pd  Pd23  1  0.59787661  0.93835824  0.60212725  1
  Pd  Pd24  1  0.93434128  0.26592221  0.60291105  1
  Pd  Pd25  1  0.93554150  0.60128191  0.60379697  1
  Pd  Pd26  1  0.93319566  0.93492295  0.60370790  1
  C  C27  1  0.64507601  0.60692696  0.69360987  1
  H  H28  1  0.54000760  0.59571473  0.72479594  1
  O  O29  1  0.77168685  0.61954895  0.71511119  1
