# generated using pymatgen
data_HPd27CO
_symmetry_space_group_name_H-M   'P 1'
_cell_length_a   8.25688963
_cell_length_b   8.25682385
_cell_length_c   22.52889700
_cell_angle_alpha   86.49742100
_cell_angle_beta   86.49797035
_cell_angle_gamma   59.99972739
_symmetry_Int_Tables_number   1
_chemical_formula_structural   HPd27CO
_chemical_formula_sum   'Pd27 H1 C1 O1'
_cell_volume   1326.83127031
_cell_formula_units_Z   1
loop_
 _symmetry_equiv_pos_site_id
 _symmetry_equiv_pos_as_xyz
  1  'x, y, z'
loop_
 _atom_site_type_symbol
 _atom_site_label
 _atom_site_symmetry_multiplicity
 _atom_site_fract_x
 _atom_site_fract_y
 _atom_site_fract_z
 _atom_site_occupancy
  Pd  Pd0  1  0.06666700  0.06666600  0.40000000  1
  Pd  Pd1  1  0.06666700  0.39999900  0.40000000  1
  Pd  Pd2  1  0.06666700  0.73333300  0.40000000  1
  Pd  Pd3  1  0.40000000  0.06666600  0.40000000  1
  Pd  Pd4  1  0.40000000  0.39999900  0.40000000  1
  Pd  Pd5  1  0.40000000  0.73333300  0.40000000  1
  Pd  Pd6  1  0.73333300  0.06666600  0.40000000  1
  Pd  Pd7  1  0.73333300  0.39999900  0.40000000  1
  Pd  Pd8  1  0.73333300  0.73333300  0.40000000  1
  Pd  Pd9  1  0.16677761  0.16736500  0.50159866  1
  Pd  Pd10  1  0.16612536  0.50117828  0.50177740  1
  Pd  Pd11  1  0.16705141  0.83403496  0.50162795  1
  Pd  Pd12  1  0.49987287  0.16801305  0.50130158  1
  Pd  Pd13  1  0.50073242  0.50144994  0.50318598  1
  Pd  Pd14  1  0.50032821  0.83278637  0.50281534  1
  Pd  Pd15  1  0.83306585  0.16789738  0.50143729  1
  Pd  Pd16  1  0.83248118  0.50116381  0.50232791  1
  Pd  Pd17  1  0.83325591  0.83389700  0.50151108  1
  Pd  Pd18  1  0.26738924  0.26801440  0.60343196  1
  Pd  Pd19  1  0.26729375  0.60175359  0.60356107  1
  Pd  Pd20  1  0.26595214  0.93536950  0.60357544  1
  Pd  Pd21  1  0.60031549  0.26795708  0.60347984  1
  Pd  Pd22  1  0.60247486  0.60179168  0.60979215  1
  Pd  Pd23  1  0.59914323  0.93837747  0.60266804  1
  Pd  Pd24  1  0.93514197  0.26606130  0.60297021  1
  Pd  Pd25  1  0.93623067  0.60150701  0.60351461  1
  Pd  Pd26  1  0.93401243  0.93506085  0.60303098  1
  C  C27  1  0.64317012  0.60418943  0.69310797  1
  H  H28  1  0.53306343  0.59716888  0.72263798  1
  O  O29  1  0.77133624  0.61170016  0.71480242  1
