# generated using pymatgen
data_Fe2Mo12H(S8N)2
_symmetry_space_group_name_H-M   'P 1'
_cell_length_a   6.45357383
_cell_length_b   6.40729292
_cell_length_c   27.84326400
_cell_angle_alpha   93.27559587
_cell_angle_beta   96.42128096
_cell_angle_gamma   96.53695481
_symmetry_Int_Tables_number   1
_chemical_formula_structural   Fe2Mo12H(S8N)2
_chemical_formula_sum   'Fe2 Mo12 H1 S16 N2'
_cell_volume   1133.80606000
_cell_formula_units_Z   1
loop_
 _symmetry_equiv_pos_site_id
 _symmetry_equiv_pos_as_xyz
  1  'x, y, z'
loop_
 _atom_site_type_symbol
 _atom_site_label
 _atom_site_symmetry_multiplicity
 _atom_site_fract_x
 _atom_site_fract_y
 _atom_site_fract_z
 _atom_site_occupancy
  Fe  Fe0  1  0.93965261  0.15096040  0.45928966  1
  Fe  Fe1  1  0.90779732  0.14147916  0.68570756  1
  Mo  Mo2  1  0.21324400  0.54241800  0.34209900  1
  Mo  Mo3  1  0.20512292  0.54152216  0.57295818  1
  Mo  Mo4  1  0.79552727  0.45787667  0.38836286  1
  Mo  Mo5  1  0.77602019  0.44984596  0.61736849  1
  Mo  Mo6  1  0.41025329  0.21908888  0.37432147  1
  Mo  Mo7  1  0.39753831  0.21526693  0.60561653  1
  Mo  Mo8  1  0.59439000  0.78338100  0.35611600  1
  Mo  Mo9  1  0.58351996  0.77834947  0.58628861  1
  Mo  Mo10  1  0.53839000  0.41017300  0.30039200  1
  Mo  Mo11  1  0.53134598  0.40964908  0.52987029  1
  Mo  Mo12  1  0.46204556  0.59946626  0.43222886  1
  Mo  Mo13  1  0.45692786  0.58895472  0.65947169  1
  S  S14  1  0.14238565  0.36472056  0.41657506  1
  S  S15  1  0.12976988  0.36333923  0.64877748  1
  S  S16  1  0.86398200  0.63520500  0.31550800  1
  S  S17  1  0.85629639  0.63582294  0.54566638  1
  S  S18  1  0.72141400  0.13929400  0.33709200  1
  S  S19  1  0.70893480  0.13435743  0.56619807  1
  S  S20  1  0.27808347  0.86221346  0.39322611  1
  S  S21  1  0.26918441  0.85930057  0.62654337  1
  S  S22  1  0.37280800  0.72589200  0.28016400  1
  S  S23  1  0.36239525  0.72461769  0.51059066  1
  S  S24  1  0.62378591  0.27404294  0.45163641  1
  S  S25  1  0.60574143  0.27721061  0.68413079  1
  S  S26  1  0.19164500  0.20201400  0.29537700  1
  S  S27  1  0.18301884  0.20304986  0.52572201  1
  S  S28  1  0.81285374  0.80247310  0.43610005  1
  S  S29  1  0.79841197  0.79131304  0.66558178  1
  N  N30  1  0.97180094  0.14391373  0.74683823  1
  N  N31  1  0.93187544  0.12905564  0.78750887  1
  H  H32  1  0.05137762  0.15116521  0.81648238  1
