# generated using pymatgen
data_Pd27N2
_symmetry_space_group_name_H-M   'P 1'
_cell_length_a   8.25688963
_cell_length_b   8.25682385
_cell_length_c   22.52889700
_cell_angle_alpha   86.49742100
_cell_angle_beta   86.49797035
_cell_angle_gamma   59.99972739
_symmetry_Int_Tables_number   1
_chemical_formula_structural   Pd27N2
_chemical_formula_sum   'Pd27 N2'
_cell_volume   1326.83127031
_cell_formula_units_Z   1
loop_
 _symmetry_equiv_pos_site_id
 _symmetry_equiv_pos_as_xyz
  1  'x, y, z'
loop_
 _atom_site_type_symbol
 _atom_site_label
 _atom_site_symmetry_multiplicity
 _atom_site_fract_x
 _atom_site_fract_y
 _atom_site_fract_z
 _atom_site_occupancy
  Pd  Pd0  1  0.06666700  0.06666600  0.40000000  1
  Pd  Pd1  1  0.06666700  0.39999900  0.40000000  1
  Pd  Pd2  1  0.06666700  0.73333300  0.40000000  1
  Pd  Pd3  1  0.40000000  0.06666600  0.40000000  1
  Pd  Pd4  1  0.40000000  0.39999900  0.40000000  1
  Pd  Pd5  1  0.40000000  0.73333300  0.40000000  1
  Pd  Pd6  1  0.73333300  0.06666600  0.40000000  1
  Pd  Pd7  1  0.73333300  0.39999900  0.40000000  1
  Pd  Pd8  1  0.73333300  0.73333300  0.40000000  1
  Pd  Pd9  1  0.16673882  0.16673517  0.50119297  1
  Pd  Pd10  1  0.16684038  0.49967266  0.50118406  1
  Pd  Pd11  1  0.16631203  0.83336927  0.50130067  1
  Pd  Pd12  1  0.49967648  0.16683664  0.50118417  1
  Pd  Pd13  1  0.50054135  0.50053777  0.50280887  1
  Pd  Pd14  1  0.50043676  0.83176868  0.50266584  1
  Pd  Pd15  1  0.83337313  0.16630776  0.50130065  1
  Pd  Pd16  1  0.83177249  0.50043296  0.50266573  1
  Pd  Pd17  1  0.83342856  0.83342481  0.50126137  1
  Pd  Pd18  1  0.26645785  0.26644981  0.60314056  1
  Pd  Pd19  1  0.26400936  0.59986279  0.60284493  1
  Pd  Pd20  1  0.26390097  0.93566162  0.60273630  1
  Pd  Pd21  1  0.59987084  0.26400139  0.60284495  1
  Pd  Pd22  1  0.59937239  0.59936416  0.60741860  1
  Pd  Pd23  1  0.59987423  0.93587651  0.60265155  1
  Pd  Pd24  1  0.93566972  0.26389302  0.60273618  1
  Pd  Pd25  1  0.93588461  0.59986607  0.60265152  1
  Pd  Pd26  1  0.93316119  0.93315335  0.60286145  1
  N  N27  1  0.59402513  0.59401497  0.69508616  1
  N  N28  1  0.59323309  0.59322408  0.74486393  1
