# generated using pymatgen
data_HPd27O
_symmetry_space_group_name_H-M   'P 1'
_cell_length_a   8.25688963
_cell_length_b   8.25682385
_cell_length_c   22.52889700
_cell_angle_alpha   86.49742100
_cell_angle_beta   86.49797035
_cell_angle_gamma   59.99972739
_symmetry_Int_Tables_number   1
_chemical_formula_structural   HPd27O
_chemical_formula_sum   'Pd27 H1 O1'
_cell_volume   1326.83127031
_cell_formula_units_Z   1
loop_
 _symmetry_equiv_pos_site_id
 _symmetry_equiv_pos_as_xyz
  1  'x, y, z'
loop_
 _atom_site_type_symbol
 _atom_site_label
 _atom_site_symmetry_multiplicity
 _atom_site_fract_x
 _atom_site_fract_y
 _atom_site_fract_z
 _atom_site_occupancy
  Pd  Pd0  1  0.06666700  0.06666600  0.40000000  1
  Pd  Pd1  1  0.06666700  0.39999900  0.40000000  1
  Pd  Pd2  1  0.06666700  0.73333300  0.40000000  1
  Pd  Pd3  1  0.40000000  0.06666600  0.40000000  1
  Pd  Pd4  1  0.40000000  0.39999900  0.40000000  1
  Pd  Pd5  1  0.40000000  0.73333300  0.40000000  1
  Pd  Pd6  1  0.73333300  0.06666600  0.40000000  1
  Pd  Pd7  1  0.73333300  0.39999900  0.40000000  1
  Pd  Pd8  1  0.73333300  0.73333300  0.40000000  1
  Pd  Pd9  1  0.16763876  0.16763394  0.50138429  1
  Pd  Pd10  1  0.16800084  0.50079299  0.50117548  1
  Pd  Pd11  1  0.16756127  0.83425176  0.50133759  1
  Pd  Pd12  1  0.50079824  0.16799591  0.50117552  1
  Pd  Pd13  1  0.50147017  0.50146496  0.50273763  1
  Pd  Pd14  1  0.50128625  0.83301517  0.50237715  1
  Pd  Pd15  1  0.83425693  0.16755584  0.50133751  1
  Pd  Pd16  1  0.83301998  0.50128106  0.50237722  1
  Pd  Pd17  1  0.83431861  0.83431331  0.50122488  1
  Pd  Pd18  1  0.26852894  0.26851791  0.60297902  1
  Pd  Pd19  1  0.26765025  0.60175147  0.60298068  1
  Pd  Pd20  1  0.26730096  0.93617819  0.60279897  1
  Pd  Pd21  1  0.60176225  0.26763997  0.60298068  1
  Pd  Pd22  1  0.60252324  0.60251297  0.60730528  1
  Pd  Pd23  1  0.60157198  0.93752903  0.60235341  1
  Pd  Pd24  1  0.93618840  0.26729077  0.60279904  1
  Pd  Pd25  1  0.93753952  0.60156096  0.60235365  1
  Pd  Pd26  1  0.93518505  0.93517484  0.60303279  1
  O  O27  1  0.60395170  0.60394687  0.69777221  1
  H  H28  1  0.53739180  0.53732545  0.71199113  1
