# generated using pymatgen
data_HPd27O2
_symmetry_space_group_name_H-M   'P 1'
_cell_length_a   8.25688963
_cell_length_b   8.25682385
_cell_length_c   22.52889700
_cell_angle_alpha   86.49742100
_cell_angle_beta   86.49797035
_cell_angle_gamma   59.99972739
_symmetry_Int_Tables_number   1
_chemical_formula_structural   HPd27O2
_chemical_formula_sum   'Pd27 H1 O2'
_cell_volume   1326.83127031
_cell_formula_units_Z   1
loop_
 _symmetry_equiv_pos_site_id
 _symmetry_equiv_pos_as_xyz
  1  'x, y, z'
loop_
 _atom_site_type_symbol
 _atom_site_label
 _atom_site_symmetry_multiplicity
 _atom_site_fract_x
 _atom_site_fract_y
 _atom_site_fract_z
 _atom_site_occupancy
  Pd  Pd0  1  0.06666700  0.06666600  0.40000000  1
  Pd  Pd1  1  0.06666700  0.39999900  0.40000000  1
  Pd  Pd2  1  0.06666700  0.73333300  0.40000000  1
  Pd  Pd3  1  0.40000000  0.06666600  0.40000000  1
  Pd  Pd4  1  0.40000000  0.39999900  0.40000000  1
  Pd  Pd5  1  0.40000000  0.73333300  0.40000000  1
  Pd  Pd6  1  0.73333300  0.06666600  0.40000000  1
  Pd  Pd7  1  0.73333300  0.39999900  0.40000000  1
  Pd  Pd8  1  0.73333300  0.73333300  0.40000000  1
  Pd  Pd9  1  0.16813614  0.16549919  0.50124692  1
  Pd  Pd10  1  0.16756914  0.49950187  0.50121776  1
  Pd  Pd11  1  0.16762490  0.83299528  0.50150505  1
  Pd  Pd12  1  0.50054780  0.16640128  0.50113728  1
  Pd  Pd13  1  0.50117091  0.50014081  0.50277485  1
  Pd  Pd14  1  0.50098692  0.83137015  0.50281600  1
  Pd  Pd15  1  0.83389809  0.16621672  0.50123587  1
  Pd  Pd16  1  0.83348301  0.49970486  0.50207698  1
  Pd  Pd17  1  0.83407102  0.83271071  0.50122779  1
  Pd  Pd18  1  0.26789792  0.26566850  0.60285892  1
  Pd  Pd19  1  0.26666567  0.59890095  0.60287693  1
  Pd  Pd20  1  0.26727987  0.93273943  0.60368114  1
  Pd  Pd21  1  0.60118828  0.26440085  0.60281344  1
  Pd  Pd22  1  0.60197476  0.59773914  0.60712508  1
  Pd  Pd23  1  0.60150662  0.93399817  0.60242165  1
  Pd  Pd24  1  0.93666932  0.26367728  0.60232147  1
  Pd  Pd25  1  0.93602810  0.59915652  0.60267421  1
  Pd  Pd26  1  0.93462636  0.93238619  0.60299154  1
  O  O27  1  0.63019533  0.55865547  0.69581978  1
  O  O28  1  0.47139021  0.70338199  0.72897818  1
  H  H29  1  0.51673477  0.79051325  0.73693775  1
