# generated using pymatgen
data_FeMo6S8N
_symmetry_space_group_name_H-M   'P 1'
_cell_length_a   6.45357383
_cell_length_b   6.40729292
_cell_length_c   27.84326400
_cell_angle_alpha   93.27559587
_cell_angle_beta   96.42128096
_cell_angle_gamma   96.53695481
_symmetry_Int_Tables_number   1
_chemical_formula_structural   FeMo6S8N
_chemical_formula_sum   'Fe2 Mo12 S16 N2'
_cell_volume   1133.80606000
_cell_formula_units_Z   2
loop_
 _symmetry_equiv_pos_site_id
 _symmetry_equiv_pos_as_xyz
  1  'x, y, z'
loop_
 _atom_site_type_symbol
 _atom_site_label
 _atom_site_symmetry_multiplicity
 _atom_site_fract_x
 _atom_site_fract_y
 _atom_site_fract_z
 _atom_site_occupancy
  Fe  Fe0  1  0.93911047  0.15250273  0.45957328  1
  Fe  Fe1  1  0.84618082  0.10284933  0.64432542  1
  Mo  Mo2  1  0.21324400  0.54241800  0.34209900  1
  Mo  Mo3  1  0.20804822  0.54496722  0.57413619  1
  Mo  Mo4  1  0.79501977  0.45802833  0.38843390  1
  Mo  Mo5  1  0.77138430  0.46264392  0.61667261  1
  Mo  Mo6  1  0.41067622  0.21963774  0.37451087  1
  Mo  Mo7  1  0.39946788  0.21617799  0.60572121  1
  Mo  Mo8  1  0.59439000  0.78338100  0.35611600  1
  Mo  Mo9  1  0.58049501  0.78333068  0.58646043  1
  Mo  Mo10  1  0.53839000  0.41017300  0.30039200  1
  Mo  Mo11  1  0.53083631  0.41918062  0.53048590  1
  Mo  Mo12  1  0.46235878  0.60093629  0.43203658  1
  Mo  Mo13  1  0.45402491  0.58288922  0.65925086  1
  S  S14  1  0.14256427  0.36541115  0.41673779  1
  S  S15  1  0.12469351  0.36007333  0.64836719  1
  S  S16  1  0.86398200  0.63520500  0.31550800  1
  S  S17  1  0.85768984  0.64788899  0.54540566  1
  S  S18  1  0.72141400  0.13929400  0.33709200  1
  S  S19  1  0.71088656  0.13468987  0.56399584  1
  S  S20  1  0.27806798  0.86292756  0.39325731  1
  S  S21  1  0.26941102  0.86097293  0.62818160  1
  S  S22  1  0.37280800  0.72589200  0.28016400  1
  S  S23  1  0.35909010  0.73036537  0.51056795  1
  S  S24  1  0.62344429  0.27684098  0.45210142  1
  S  S25  1  0.61527273  0.27666858  0.68521187  1
  S  S26  1  0.19164500  0.20201400  0.29537700  1
  S  S27  1  0.18393008  0.20911763  0.52624885  1
  S  S28  1  0.81297208  0.80427950  0.43583075  1
  S  S29  1  0.79730741  0.77962250  0.66964036  1
  N  N30  1  0.01879723  0.13793779  0.75921127  1
  N  N31  1  0.90777580  0.11317660  0.78657236  1
