# generated using pymatgen
data_Mo12C(Se8O)2
_symmetry_space_group_name_H-M   'P 1'
_cell_length_a   6.61417350
_cell_length_b   6.61583473
_cell_length_c   28.23028900
_cell_angle_alpha   91.53841057
_cell_angle_beta   91.51120564
_cell_angle_gamma   91.52367391
_symmetry_Int_Tables_number   1
_chemical_formula_structural   Mo12C(Se8O)2
_chemical_formula_sum   'Mo12 Se16 C1 O2'
_cell_volume   1233.97341125
_cell_formula_units_Z   1
loop_
 _symmetry_equiv_pos_site_id
 _symmetry_equiv_pos_as_xyz
  1  'x, y, z'
loop_
 _atom_site_type_symbol
 _atom_site_label
 _atom_site_symmetry_multiplicity
 _atom_site_fract_x
 _atom_site_fract_y
 _atom_site_fract_z
 _atom_site_occupancy
  Mo  Mo0  1  0.22064400  0.54530100  0.34680900  1
  Mo  Mo1  1  0.22986080  0.54929551  0.58133919  1
  Mo  Mo2  1  0.77519038  0.45352130  0.38679086  1
  Mo  Mo3  1  0.78360055  0.45308892  0.62036236  1
  Mo  Mo4  1  0.41450755  0.22541120  0.37778765  1
  Mo  Mo5  1  0.42807155  0.21962623  0.61112168  1
  Mo  Mo6  1  0.57870096  0.77634836  0.35668958  1
  Mo  Mo7  1  0.58947393  0.77969952  0.58922483  1
  Mo  Mo8  1  0.54531000  0.41281400  0.30171000  1
  Mo  Mo9  1  0.54979863  0.41798066  0.53519870  1
  Mo  Mo10  1  0.45229301  0.58534399  0.43253515  1
  Mo  Mo11  1  0.46629546  0.58156538  0.66332902  1
  Se  Se12  1  0.12446087  0.37758784  0.42593743  1
  Se  Se13  1  0.13306954  0.37469571  0.65917593  1
  Se  Se14  1  0.87245300  0.62115500  0.30846200  1
  Se  Se15  1  0.87954528  0.62547725  0.54192575  1
  Se  Se16  1  0.75031900  0.12757300  0.33876000  1
  Se  Se17  1  0.75767074  0.12833809  0.57025865  1
  Se  Se18  1  0.24554703  0.87296475  0.39644031  1
  Se  Se19  1  0.25958429  0.87417826  0.63278671  1
  Se  Se20  1  0.37880700  0.75023000  0.27992500  1
  Se  Se21  1  0.37790341  0.75498499  0.51376811  1
  Se  Se22  1  0.62268783  0.24844447  0.45412974  1
  Se  Se23  1  0.62648986  0.25321197  0.68907167  1
  Se  Se24  1  0.21114700  0.21116100  0.29951300  1
  Se  Se25  1  0.21598438  0.21151118  0.53494988  1
  Se  Se26  1  0.78555199  0.78720507  0.43441778  1
  Se  Se27  1  0.79285251  0.79216664  0.66639119  1
  C  C28  1  0.42054929  0.56108178  0.77196894  1
  O  O29  1  0.42484858  0.69406786  0.74481592  1
  O  O30  1  0.41530684  0.43066836  0.79875141  1
