# generated using pymatgen
data_Fe2Mo12H(S8N)2
_symmetry_space_group_name_H-M   'P 1'
_cell_length_a   6.45357383
_cell_length_b   6.40729292
_cell_length_c   27.84326400
_cell_angle_alpha   93.27559587
_cell_angle_beta   96.42128096
_cell_angle_gamma   96.53695481
_symmetry_Int_Tables_number   1
_chemical_formula_structural   Fe2Mo12H(S8N)2
_chemical_formula_sum   'Fe2 Mo12 H1 S16 N2'
_cell_volume   1133.80606000
_cell_formula_units_Z   1
loop_
 _symmetry_equiv_pos_site_id
 _symmetry_equiv_pos_as_xyz
  1  'x, y, z'
loop_
 _atom_site_type_symbol
 _atom_site_label
 _atom_site_symmetry_multiplicity
 _atom_site_fract_x
 _atom_site_fract_y
 _atom_site_fract_z
 _atom_site_occupancy
  Fe  Fe0  1  0.94051749  0.15113729  0.46036248  1
  Fe  Fe1  1  0.86322724  0.09986042  0.64426412  1
  Mo  Mo2  1  0.21324400  0.54241800  0.34209900  1
  Mo  Mo3  1  0.21821474  0.53884468  0.57545689  1
  Mo  Mo4  1  0.79431890  0.45797887  0.38842281  1
  Mo  Mo5  1  0.78661925  0.45842850  0.61785866  1
  Mo  Mo6  1  0.41046491  0.21889860  0.37458074  1
  Mo  Mo7  1  0.41132527  0.21095655  0.60733974  1
  Mo  Mo8  1  0.59439000  0.78338100  0.35611600  1
  Mo  Mo9  1  0.59136693  0.77965172  0.58754993  1
  Mo  Mo10  1  0.53839000  0.41017300  0.30039200  1
  Mo  Mo11  1  0.53990483  0.41304453  0.53174396  1
  Mo  Mo12  1  0.46300461  0.59959952  0.43226583  1
  Mo  Mo13  1  0.46808235  0.58752057  0.66739881  1
  S  S14  1  0.14238322  0.36424354  0.41699609  1
  S  S15  1  0.13996095  0.35647552  0.64962631  1
  S  S16  1  0.86398200  0.63520500  0.31550800  1
  S  S17  1  0.86814140  0.64005918  0.54618623  1
  S  S18  1  0.72141400  0.13929400  0.33709200  1
  S  S19  1  0.71905452  0.12816228  0.56459259  1
  S  S20  1  0.27848860  0.86183241  0.39361551  1
  S  S21  1  0.28264841  0.85313557  0.62918952  1
  S  S22  1  0.37280800  0.72589200  0.28016400  1
  S  S23  1  0.36927476  0.72413876  0.51166054  1
  S  S24  1  0.62391840  0.27492489  0.45215128  1
  S  S25  1  0.63154289  0.26056440  0.68470064  1
  S  S26  1  0.19164500  0.20201400  0.29537700  1
  S  S27  1  0.19259667  0.20394782  0.52713804  1
  S  S28  1  0.81312473  0.80401529  0.43581789  1
  S  S29  1  0.81577154  0.77804978  0.66925353  1
  N  N30  1  0.47260938  0.64200142  0.73534018  1
  N  N31  1  0.48215921  0.66806350  0.77887493  1
  H  H32  1  0.58295829  0.57931505  0.79910335  1
