# generated using pymatgen
data_FeMo6S8N
_symmetry_space_group_name_H-M   'P 1'
_cell_length_a   6.45357383
_cell_length_b   6.40729292
_cell_length_c   27.84326400
_cell_angle_alpha   93.27559587
_cell_angle_beta   96.42128096
_cell_angle_gamma   96.53695481
_symmetry_Int_Tables_number   1
_chemical_formula_structural   FeMo6S8N
_chemical_formula_sum   'Fe2 Mo12 S16 N2'
_cell_volume   1133.80606000
_cell_formula_units_Z   2
loop_
 _symmetry_equiv_pos_site_id
 _symmetry_equiv_pos_as_xyz
  1  'x, y, z'
loop_
 _atom_site_type_symbol
 _atom_site_label
 _atom_site_symmetry_multiplicity
 _atom_site_fract_x
 _atom_site_fract_y
 _atom_site_fract_z
 _atom_site_occupancy
  Fe  Fe0  1  0.94127364  0.15203971  0.46049460  1
  Fe  Fe1  1  0.86453737  0.09725030  0.64445465  1
  Mo  Mo2  1  0.21324400  0.54241800  0.34209900  1
  Mo  Mo3  1  0.22028843  0.54028148  0.57605472  1
  Mo  Mo4  1  0.79481535  0.45802048  0.38849250  1
  Mo  Mo5  1  0.78477584  0.45716798  0.61779878  1
  Mo  Mo6  1  0.41073698  0.21940256  0.37464695  1
  Mo  Mo7  1  0.41233985  0.21040933  0.60715636  1
  Mo  Mo8  1  0.59439000  0.78338100  0.35611600  1
  Mo  Mo9  1  0.59294359  0.77909065  0.58789502  1
  Mo  Mo10  1  0.53839000  0.41017300  0.30039200  1
  Mo  Mo11  1  0.54043486  0.41482336  0.53176622  1
  Mo  Mo12  1  0.46375820  0.60054582  0.43241913  1
  Mo  Mo13  1  0.46951771  0.57820219  0.66348162  1
  S  S14  1  0.14299234  0.36566605  0.41710489  1
  S  S15  1  0.13921450  0.35427121  0.64947327  1
  S  S16  1  0.86398200  0.63520500  0.31550800  1
  S  S17  1  0.86885509  0.64254859  0.54644936  1
  S  S18  1  0.72141400  0.13929400  0.33709200  1
  S  S19  1  0.72217553  0.12994414  0.56479074  1
  S  S20  1  0.27871795  0.86218723  0.39366352  1
  S  S21  1  0.28446563  0.85519776  0.63000498  1
  S  S22  1  0.37280800  0.72589200  0.28016400  1
  S  S23  1  0.36921325  0.72624121  0.51208889  1
  S  S24  1  0.62430141  0.27562524  0.45225031  1
  S  S25  1  0.63285348  0.26446992  0.68598085  1
  S  S26  1  0.19164500  0.20201400  0.29537700  1
  S  S27  1  0.19306458  0.20626630  0.52724438  1
  S  S28  1  0.81360730  0.80461368  0.43577853  1
  S  S29  1  0.81504888  0.77533718  0.67002487  1
  N  N30  1  0.45396084  0.63653090  0.73886961  1
  N  N31  1  0.45602129  0.64676429  0.77931937  1
