# generated using pymatgen
data_Fe4Mo12H3Se16N
_symmetry_space_group_name_H-M   'P 1'
_cell_length_a   6.73059675
_cell_length_b   6.68252955
_cell_length_c   28.41042900
_cell_angle_alpha   94.71078376
_cell_angle_beta   91.18717718
_cell_angle_gamma   96.76332947
_symmetry_Int_Tables_number   1
_chemical_formula_structural   Fe4Mo12H3Se16N
_chemical_formula_sum   'Fe4 Mo12 H3 Se16 N1'
_cell_volume   1264.05235895
_cell_formula_units_Z   1
loop_
 _symmetry_equiv_pos_site_id
 _symmetry_equiv_pos_as_xyz
  1  'x, y, z'
loop_
 _atom_site_type_symbol
 _atom_site_label
 _atom_site_symmetry_multiplicity
 _atom_site_fract_x
 _atom_site_fract_y
 _atom_site_fract_z
 _atom_site_occupancy
  Fe  Fe0  1  0.93038050  0.14865861  0.47881121  1
  Fe  Fe1  1  0.83274457  0.08481235  0.64751145  1
  Fe  Fe2  1  0.08366100  0.85003700  0.25310200  1
  Fe  Fe3  1  0.10121902  0.85091867  0.48267529  1
  Mo  Mo4  1  0.23212973  0.53689821  0.34776956  1
  Mo  Mo5  1  0.23419405  0.52169449  0.58620397  1
  Mo  Mo6  1  0.76986557  0.45962327  0.38739344  1
  Mo  Mo7  1  0.77065794  0.44128599  0.62310799  1
  Mo  Mo8  1  0.41228574  0.22715699  0.37714356  1
  Mo  Mo9  1  0.41266129  0.20700340  0.61488916  1
  Mo  Mo10  1  0.59222125  0.77279361  0.35821818  1
  Mo  Mo11  1  0.59285413  0.75568827  0.59559906  1
  Mo  Mo12  1  0.54876300  0.41297700  0.30450800  1
  Mo  Mo13  1  0.55077358  0.40220233  0.54077772  1
  Mo  Mo14  1  0.45154327  0.58520130  0.43204752  1
  Mo  Mo15  1  0.45455420  0.56462211  0.66823261  1
  Se  Se16  1  0.11805169  0.36046083  0.42320835  1
  Se  Se17  1  0.11774706  0.34026390  0.66112078  1
  Se  Se18  1  0.88453700  0.63734700  0.31138600  1
  Se  Se19  1  0.88775059  0.62747688  0.54908476  1
  Se  Se20  1  0.73453736  0.13499937  0.33385222  1
  Se  Se21  1  0.73405867  0.10959624  0.56606645  1
  Se  Se22  1  0.26204305  0.86531419  0.39963187  1
  Se  Se23  1  0.27297777  0.84702775  0.63981191  1
  Se  Se24  1  0.39326800  0.73478000  0.28166600  1
  Se  Se25  1  0.38804144  0.71810976  0.51948007  1
  Se  Se26  1  0.60969015  0.26248394  0.45402079  1
  Se  Se27  1  0.60675311  0.25665296  0.69563605  1
  Se  Se28  1  0.21444700  0.18780600  0.29890600  1
  Se  Se29  1  0.21583009  0.17721795  0.53545677  1
  Se  Se30  1  0.78512341  0.80845210  0.43753869  1
  Se  Se31  1  0.80043270  0.76449811  0.67808129  1
  N  N32  1  0.41034647  0.63586574  0.74658450  1
  H  H33  1  0.54576246  0.67317769  0.76444005  1
  H  H34  1  0.32672651  0.75305712  0.75475270  1
  H  H35  1  0.34048792  0.51183910  0.76143800  1
