# generated using pymatgen
data_HPd27O2
_symmetry_space_group_name_H-M   'P 1'
_cell_length_a   8.25688963
_cell_length_b   8.25682385
_cell_length_c   22.52889700
_cell_angle_alpha   86.49742100
_cell_angle_beta   86.49797035
_cell_angle_gamma   59.99972739
_symmetry_Int_Tables_number   1
_chemical_formula_structural   HPd27O2
_chemical_formula_sum   'Pd27 H1 O2'
_cell_volume   1326.83127031
_cell_formula_units_Z   1
loop_
 _symmetry_equiv_pos_site_id
 _symmetry_equiv_pos_as_xyz
  1  'x, y, z'
loop_
 _atom_site_type_symbol
 _atom_site_label
 _atom_site_symmetry_multiplicity
 _atom_site_fract_x
 _atom_site_fract_y
 _atom_site_fract_z
 _atom_site_occupancy
  Pd  Pd0  1  0.06666700  0.06666600  0.40000000  1
  Pd  Pd1  1  0.06666700  0.39999900  0.40000000  1
  Pd  Pd2  1  0.06666700  0.73333300  0.40000000  1
  Pd  Pd3  1  0.40000000  0.06666600  0.40000000  1
  Pd  Pd4  1  0.40000000  0.39999900  0.40000000  1
  Pd  Pd5  1  0.40000000  0.73333300  0.40000000  1
  Pd  Pd6  1  0.73333300  0.06666600  0.40000000  1
  Pd  Pd7  1  0.73333300  0.39999900  0.40000000  1
  Pd  Pd8  1  0.73333300  0.73333300  0.40000000  1
  Pd  Pd9  1  0.16772463  0.16582367  0.50145094  1
  Pd  Pd10  1  0.16732735  0.49970675  0.50158094  1
  Pd  Pd11  1  0.16693377  0.83326667  0.50171613  1
  Pd  Pd12  1  0.49991914  0.16685492  0.50139467  1
  Pd  Pd13  1  0.50081474  0.50050624  0.50322029  1
  Pd  Pd14  1  0.50059290  0.83143639  0.50308228  1
  Pd  Pd15  1  0.83332857  0.16645540  0.50154954  1
  Pd  Pd16  1  0.83308217  0.49995060  0.50213410  1
  Pd  Pd17  1  0.83354318  0.83305387  0.50142436  1
  Pd  Pd18  1  0.26703979  0.26597566  0.60347881  1
  Pd  Pd19  1  0.26594743  0.59932696  0.60353246  1
  Pd  Pd20  1  0.26624692  0.93327313  0.60392997  1
  Pd  Pd21  1  0.60013847  0.26461793  0.60341103  1
  Pd  Pd22  1  0.60164029  0.59791418  0.60763896  1
  Pd  Pd23  1  0.60041795  0.93453404  0.60285174  1
  Pd  Pd24  1  0.93607547  0.26375488  0.60266118  1
  Pd  Pd25  1  0.93548539  0.59959012  0.60296020  1
  Pd  Pd26  1  0.93377426  0.93263276  0.60351975  1
  O  O27  1  0.64424356  0.55769592  0.69624918  1
  O  O28  1  0.48404673  0.69030089  0.73266565  1
  H  H29  1  0.51602684  0.78882542  0.73821160  1
