# generated using pymatgen
data_Fe4Mo12H3Se16N
_symmetry_space_group_name_H-M   'P 1'
_cell_length_a   6.73059675
_cell_length_b   6.68252955
_cell_length_c   28.41042900
_cell_angle_alpha   94.71078376
_cell_angle_beta   91.18717718
_cell_angle_gamma   96.76332947
_symmetry_Int_Tables_number   1
_chemical_formula_structural   Fe4Mo12H3Se16N
_chemical_formula_sum   'Fe4 Mo12 H3 Se16 N1'
_cell_volume   1264.05235895
_cell_formula_units_Z   1
loop_
 _symmetry_equiv_pos_site_id
 _symmetry_equiv_pos_as_xyz
  1  'x, y, z'
loop_
 _atom_site_type_symbol
 _atom_site_label
 _atom_site_symmetry_multiplicity
 _atom_site_fract_x
 _atom_site_fract_y
 _atom_site_fract_z
 _atom_site_occupancy
  Fe  Fe0  1  0.90971507  0.14697285  0.48011668  1
  Fe  Fe1  1  0.82291020  0.12144711  0.67469760  1
  Fe  Fe2  1  0.08366100  0.85003700  0.25310200  1
  Fe  Fe3  1  0.07837539  0.85042162  0.48754010  1
  Mo  Mo4  1  0.22979805  0.53626162  0.34749297  1
  Mo  Mo5  1  0.21325047  0.53488057  0.58185174  1
  Mo  Mo6  1  0.76655804  0.45892292  0.38748278  1
  Mo  Mo7  1  0.73746820  0.44652280  0.62288327  1
  Mo  Mo8  1  0.40866906  0.22582160  0.37689530  1
  Mo  Mo9  1  0.38276292  0.22111424  0.61304508  1
  Mo  Mo10  1  0.58941841  0.77306148  0.35808813  1
  Mo  Mo11  1  0.57314119  0.76417796  0.59411088  1
  Mo  Mo12  1  0.54876300  0.41297700  0.30450800  1
  Mo  Mo13  1  0.53279943  0.40665459  0.53906450  1
  Mo  Mo14  1  0.44723003  0.58534852  0.43136407  1
  Mo  Mo15  1  0.42110612  0.58095663  0.66426967  1
  Se  Se16  1  0.11249385  0.35877932  0.42321752  1
  Se  Se17  1  0.08890185  0.36773045  0.65690656  1
  Se  Se18  1  0.88453700  0.63734700  0.31138600  1
  Se  Se19  1  0.86728454  0.63252529  0.54798107  1
  Se  Se20  1  0.73283306  0.13463380  0.33392998  1
  Se  Se21  1  0.71727738  0.12194185  0.56986572  1
  Se  Se22  1  0.25752502  0.86371874  0.39969415  1
  Se  Se23  1  0.24399880  0.86111909  0.63534725  1
  Se  Se24  1  0.39326800  0.73478000  0.28166600  1
  Se  Se25  1  0.38317138  0.73157685  0.51654875  1
  Se  Se26  1  0.60169980  0.26186704  0.45370346  1
  Se  Se27  1  0.53849179  0.27579912  0.69722463  1
  Se  Se28  1  0.21444700  0.18780600  0.29890600  1
  Se  Se29  1  0.19888934  0.18356444  0.53308248  1
  Se  Se30  1  0.78160579  0.81034464  0.43700534  1
  Se  Se31  1  0.76732914  0.76686918  0.67710199  1
  N  N32  1  0.92303105  0.13907658  0.74802865  1
  H  H33  1  0.07385842  0.13390470  0.75306916  1
  H  H34  1  0.88972222  0.26940502  0.76659172  1
  H  H35  1  0.85130363  0.02030309  0.76457047  1
