# generated using pymatgen
data_Fe2Mo12HS16
_symmetry_space_group_name_H-M   'P 1'
_cell_length_a   6.45357383
_cell_length_b   6.40729292
_cell_length_c   27.84326400
_cell_angle_alpha   93.27559587
_cell_angle_beta   96.42128096
_cell_angle_gamma   96.53695481
_symmetry_Int_Tables_number   1
_chemical_formula_structural   Fe2Mo12HS16
_chemical_formula_sum   'Fe2 Mo12 H1 S16'
_cell_volume   1133.80606000
_cell_formula_units_Z   1
loop_
 _symmetry_equiv_pos_site_id
 _symmetry_equiv_pos_as_xyz
  1  'x, y, z'
loop_
 _atom_site_type_symbol
 _atom_site_label
 _atom_site_symmetry_multiplicity
 _atom_site_fract_x
 _atom_site_fract_y
 _atom_site_fract_z
 _atom_site_occupancy
  Fe  Fe0  1  0.94119067  0.15241852  0.45997027  1
  Fe  Fe1  1  0.85426739  0.10529388  0.65191754  1
  Mo  Mo2  1  0.21324400  0.54241800  0.34209900  1
  Mo  Mo3  1  0.21246209  0.54221454  0.57443879  1
  Mo  Mo4  1  0.79580441  0.45785112  0.38849839  1
  Mo  Mo5  1  0.77494700  0.46001756  0.61755109  1
  Mo  Mo6  1  0.41094235  0.21997931  0.37457542  1
  Mo  Mo7  1  0.40434940  0.21373814  0.60680660  1
  Mo  Mo8  1  0.59439000  0.78338100  0.35611600  1
  Mo  Mo9  1  0.58469918  0.78131849  0.58803528  1
  Mo  Mo10  1  0.53839000  0.41017300  0.30039200  1
  Mo  Mo11  1  0.53615349  0.41611068  0.53125862  1
  Mo  Mo12  1  0.46404731  0.60077311  0.43225795  1
  Mo  Mo13  1  0.45349354  0.58094088  0.66086859  1
  S  S14  1  0.14336185  0.36606039  0.41698198  1
  S  S15  1  0.12535349  0.35838861  0.64740143  1
  S  S16  1  0.86398200  0.63520500  0.31550800  1
  S  S17  1  0.86173236  0.64568710  0.54634880  1
  S  S18  1  0.72141400  0.13929400  0.33709200  1
  S  S19  1  0.71726711  0.13338005  0.56650686  1
  S  S20  1  0.27861837  0.86267444  0.39343167  1
  S  S21  1  0.27169937  0.85844323  0.62880418  1
  S  S22  1  0.37280800  0.72589200  0.28016400  1
  S  S23  1  0.36670139  0.72803631  0.51134642  1
  S  S24  1  0.62481446  0.27587920  0.45232858  1
  S  S25  1  0.61553408  0.27675023  0.68689432  1
  S  S26  1  0.19164500  0.20201400  0.29537700  1
  S  S27  1  0.18863784  0.20571294  0.52677039  1
  S  S28  1  0.81465760  0.80435610  0.43572749  1
  S  S29  1  0.79487638  0.77624290  0.67033698  1
  H  H30  1  0.99263272  0.09289199  0.69884704  1
