# generated using pymatgen
data_Pd27CO2
_symmetry_space_group_name_H-M   'P 1'
_cell_length_a   8.25688963
_cell_length_b   8.25682385
_cell_length_c   22.52889700
_cell_angle_alpha   86.49742100
_cell_angle_beta   86.49797035
_cell_angle_gamma   59.99972739
_symmetry_Int_Tables_number   1
_chemical_formula_structural   Pd27CO2
_chemical_formula_sum   'Pd27 C1 O2'
_cell_volume   1326.83127031
_cell_formula_units_Z   1
loop_
 _symmetry_equiv_pos_site_id
 _symmetry_equiv_pos_as_xyz
  1  'x, y, z'
loop_
 _atom_site_type_symbol
 _atom_site_label
 _atom_site_symmetry_multiplicity
 _atom_site_fract_x
 _atom_site_fract_y
 _atom_site_fract_z
 _atom_site_occupancy
  Pd  Pd0  1  0.06666700  0.06666600  0.40000000  1
  Pd  Pd1  1  0.06666700  0.39999900  0.40000000  1
  Pd  Pd2  1  0.06666700  0.73333300  0.40000000  1
  Pd  Pd3  1  0.40000000  0.06666600  0.40000000  1
  Pd  Pd4  1  0.40000000  0.39999900  0.40000000  1
  Pd  Pd5  1  0.40000000  0.73333300  0.40000000  1
  Pd  Pd6  1  0.73333300  0.06666600  0.40000000  1
  Pd  Pd7  1  0.73333300  0.39999900  0.40000000  1
  Pd  Pd8  1  0.73333300  0.73333300  0.40000000  1
  Pd  Pd9  1  0.16634134  0.16688352  0.50125639  1
  Pd  Pd10  1  0.16653703  0.50033357  0.50113897  1
  Pd  Pd11  1  0.16688500  0.83330442  0.50130010  1
  Pd  Pd12  1  0.49996596  0.16678305  0.50125456  1
  Pd  Pd13  1  0.50019469  0.50069309  0.50211785  1
  Pd  Pd14  1  0.50030204  0.83232364  0.50189525  1
  Pd  Pd15  1  0.83302817  0.16716746  0.50121912  1
  Pd  Pd16  1  0.83207092  0.50066427  0.50203415  1
  Pd  Pd17  1  0.83287143  0.83341483  0.50128776  1
  Pd  Pd18  1  0.26618727  0.26739189  0.60260354  1
  Pd  Pd19  1  0.26585678  0.60036591  0.60279260  1
  Pd  Pd20  1  0.26581334  0.93409076  0.60250089  1
  Pd  Pd21  1  0.59975464  0.26689659  0.60259300  1
  Pd  Pd22  1  0.59919444  0.60005751  0.60854498  1
  Pd  Pd23  1  0.59963228  0.93432664  0.60256382  1
  Pd  Pd24  1  0.93327713  0.26659092  0.60261039  1
  Pd  Pd25  1  0.93402162  0.60033297  0.60257940  1
  Pd  Pd26  1  0.93299234  0.93372667  0.60260756  1
  C  C27  1  0.59745794  0.59512161  0.70008132  1
  O  O28  1  0.51812024  0.75462652  0.71948026  1
  O  O29  1  0.67585251  0.43320024  0.72102835  1
