# generated using pymatgen
data_Fe2Mo12H3S16N
_symmetry_space_group_name_H-M   'P 1'
_cell_length_a   6.45357383
_cell_length_b   6.40729292
_cell_length_c   27.84326400
_cell_angle_alpha   93.27559587
_cell_angle_beta   96.42128096
_cell_angle_gamma   96.53695481
_symmetry_Int_Tables_number   1
_chemical_formula_structural   Fe2Mo12H3S16N
_chemical_formula_sum   'Fe2 Mo12 H3 S16 N1'
_cell_volume   1133.80606000
_cell_formula_units_Z   1
loop_
 _symmetry_equiv_pos_site_id
 _symmetry_equiv_pos_as_xyz
  1  'x, y, z'
loop_
 _atom_site_type_symbol
 _atom_site_label
 _atom_site_symmetry_multiplicity
 _atom_site_fract_x
 _atom_site_fract_y
 _atom_site_fract_z
 _atom_site_occupancy
  Fe  Fe0  1  0.93611831  0.15050791  0.45715581  1
  Fe  Fe1  1  0.88519851  0.12982039  0.68020541  1
  Mo  Mo2  1  0.21324400  0.54241800  0.34209900  1
  Mo  Mo3  1  0.19237718  0.53995290  0.57206763  1
  Mo  Mo4  1  0.79473769  0.45766014  0.38825983  1
  Mo  Mo5  1  0.75735457  0.44818081  0.61639363  1
  Mo  Mo6  1  0.40980348  0.21850591  0.37419934  1
  Mo  Mo7  1  0.38067710  0.21423212  0.60432810  1
  Mo  Mo8  1  0.59439000  0.78338100  0.35611600  1
  Mo  Mo9  1  0.56895855  0.77750430  0.58534141  1
  Mo  Mo10  1  0.53839000  0.41017300  0.30039200  1
  Mo  Mo11  1  0.51897727  0.40974369  0.52909933  1
  Mo  Mo12  1  0.46034429  0.59928210  0.43197579  1
  Mo  Mo13  1  0.43876785  0.58516204  0.65813339  1
  S  S14  1  0.14177776  0.36427793  0.41604945  1
  S  S15  1  0.11239670  0.35971866  0.64734292  1
  S  S16  1  0.86398200  0.63520500  0.31550800  1
  S  S17  1  0.84309607  0.63665146  0.54500764  1
  S  S18  1  0.72141400  0.13929400  0.33709200  1
  S  S19  1  0.69370580  0.13243521  0.56515771  1
  S  S20  1  0.27748670  0.86235191  0.39292628  1
  S  S21  1  0.25425524  0.85784514  0.62568046  1
  S  S22  1  0.37280800  0.72589200  0.28016400  1
  S  S23  1  0.34972746  0.72367623  0.50951989  1
  S  S24  1  0.62180956  0.27441790  0.45158439  1
  S  S25  1  0.58616745  0.27443506  0.68359337  1
  S  S26  1  0.19164500  0.20201400  0.29537700  1
  S  S27  1  0.17107401  0.20171880  0.52449859  1
  S  S28  1  0.81184191  0.80135985  0.43607407  1
  S  S29  1  0.78417825  0.78044799  0.66568281  1
  N  N30  1  0.97979132  0.13657827  0.75413349  1
  H  H31  1  0.13835507  0.14602895  0.76456320  1
  H  H32  1  0.92658518  0.26065264  0.77238244  1
  H  H33  1  0.91242556  0.00150723  0.76759980  1
