# generated using pymatgen
data_Pd27CO
_symmetry_space_group_name_H-M   'P 1'
_cell_length_a   8.25688963
_cell_length_b   8.25682385
_cell_length_c   22.52889700
_cell_angle_alpha   86.49742100
_cell_angle_beta   86.49797035
_cell_angle_gamma   59.99972739
_symmetry_Int_Tables_number   1
_chemical_formula_structural   Pd27CO
_chemical_formula_sum   'Pd27 C1 O1'
_cell_volume   1326.83127031
_cell_formula_units_Z   1
loop_
 _symmetry_equiv_pos_site_id
 _symmetry_equiv_pos_as_xyz
  1  'x, y, z'
loop_
 _atom_site_type_symbol
 _atom_site_label
 _atom_site_symmetry_multiplicity
 _atom_site_fract_x
 _atom_site_fract_y
 _atom_site_fract_z
 _atom_site_occupancy
  Pd  Pd0  1  0.06666700  0.06666600  0.40000000  1
  Pd  Pd1  1  0.06666700  0.39999900  0.40000000  1
  Pd  Pd2  1  0.06666700  0.73333300  0.40000000  1
  Pd  Pd3  1  0.40000000  0.06666600  0.40000000  1
  Pd  Pd4  1  0.40000000  0.39999900  0.40000000  1
  Pd  Pd5  1  0.40000000  0.73333300  0.40000000  1
  Pd  Pd6  1  0.73333300  0.06666600  0.40000000  1
  Pd  Pd7  1  0.73333300  0.39999900  0.40000000  1
  Pd  Pd8  1  0.73333300  0.73333300  0.40000000  1
  Pd  Pd9  1  0.16649249  0.16651276  0.50167564  1
  Pd  Pd10  1  0.16650838  0.49958010  0.50168215  1
  Pd  Pd11  1  0.16604304  0.83328770  0.50159439  1
  Pd  Pd12  1  0.49954014  0.16653583  0.50167612  1
  Pd  Pd13  1  0.50019507  0.50023096  0.50292276  1
  Pd  Pd14  1  0.50014992  0.83189015  0.50286728  1
  Pd  Pd15  1  0.83324417  0.16609859  0.50159638  1
  Pd  Pd16  1  0.83193520  0.50015844  0.50281718  1
  Pd  Pd17  1  0.83323490  0.83326700  0.50160188  1
  Pd  Pd18  1  0.26601964  0.26614509  0.60387661  1
  Pd  Pd19  1  0.26353470  0.59944215  0.60349062  1
  Pd  Pd20  1  0.26350301  0.93548284  0.60349093  1
  Pd  Pd21  1  0.59926672  0.26368666  0.60349968  1
  Pd  Pd22  1  0.59884665  0.59914782  0.60707386  1
  Pd  Pd23  1  0.59925289  0.93554476  0.60354306  1
  Pd  Pd24  1  0.93532635  0.26367849  0.60350873  1
  Pd  Pd25  1  0.93538050  0.59940437  0.60355334  1
  Pd  Pd26  1  0.93275438  0.93288430  0.60334601  1
  O  O27  1  0.59147168  0.58507609  0.74063417  1
  C  C28  1  0.59507581  0.59059730  0.68872541  1
