# generated using pymatgen
data_Mo12HSe16
_symmetry_space_group_name_H-M   'P 1'
_cell_length_a   6.61417350
_cell_length_b   6.61583473
_cell_length_c   28.23028900
_cell_angle_alpha   91.53841057
_cell_angle_beta   91.51120564
_cell_angle_gamma   91.52367391
_symmetry_Int_Tables_number   1
_chemical_formula_structural   Mo12HSe16
_chemical_formula_sum   'Mo12 H1 Se16'
_cell_volume   1233.97341125
_cell_formula_units_Z   1
loop_
 _symmetry_equiv_pos_site_id
 _symmetry_equiv_pos_as_xyz
  1  'x, y, z'
loop_
 _atom_site_type_symbol
 _atom_site_label
 _atom_site_symmetry_multiplicity
 _atom_site_fract_x
 _atom_site_fract_y
 _atom_site_fract_z
 _atom_site_occupancy
  Mo  Mo0  1  0.22064400  0.54530100  0.34680900  1
  Mo  Mo1  1  0.21480590  0.54302578  0.58179506  1
  Mo  Mo2  1  0.77253191  0.45375961  0.38704769  1
  Mo  Mo3  1  0.78411969  0.44074419  0.62355364  1
  Mo  Mo4  1  0.41422278  0.22908052  0.37844124  1
  Mo  Mo5  1  0.41767281  0.20367472  0.61258374  1
  Mo  Mo6  1  0.57810465  0.77455969  0.35722975  1
  Mo  Mo7  1  0.58096182  0.78287785  0.59114603  1
  Mo  Mo8  1  0.54531000  0.41281400  0.30171000  1
  Mo  Mo9  1  0.53965742  0.41424452  0.53851992  1
  Mo  Mo10  1  0.44914015  0.58716531  0.43357333  1
  Mo  Mo11  1  0.46507562  0.56708016  0.66479323  1
  Se  Se12  1  0.12222283  0.38004029  0.42626337  1
  Se  Se13  1  0.13242302  0.36816297  0.66001306  1
  Se  Se14  1  0.87245300  0.62115500  0.30846200  1
  Se  Se15  1  0.86813658  0.62059905  0.54539634  1
  Se  Se16  1  0.75031900  0.12757300  0.33876000  1
  Se  Se17  1  0.74897203  0.12193014  0.57180725  1
  Se  Se18  1  0.24477454  0.87453736  0.39678136  1
  Se  Se19  1  0.25683827  0.86205395  0.63518008  1
  Se  Se20  1  0.37880700  0.75023000  0.27992500  1
  Se  Se21  1  0.36875593  0.75238980  0.51575231  1
  Se  Se22  1  0.62042880  0.25347046  0.45574068  1
  Se  Se23  1  0.62345772  0.23359937  0.68910400  1
  Se  Se24  1  0.21114700  0.21116100  0.29951300  1
  Se  Se25  1  0.20404234  0.20594028  0.53640805  1
  Se  Se26  1  0.78075474  0.78557881  0.43615949  1
  Se  Se27  1  0.79265240  0.78280077  0.66686173  1
  H  H28  1  0.46098839  0.62656024  0.72541508  1
