# generated using pymatgen
data_Mo12CSe16O
_symmetry_space_group_name_H-M   'P 1'
_cell_length_a   6.61417350
_cell_length_b   6.61583473
_cell_length_c   28.23028900
_cell_angle_alpha   91.53841057
_cell_angle_beta   91.51120564
_cell_angle_gamma   91.52367391
_symmetry_Int_Tables_number   1
_chemical_formula_structural   Mo12CSe16O
_chemical_formula_sum   'Mo12 Se16 C1 O1'
_cell_volume   1233.97341125
_cell_formula_units_Z   1
loop_
 _symmetry_equiv_pos_site_id
 _symmetry_equiv_pos_as_xyz
  1  'x, y, z'
loop_
 _atom_site_type_symbol
 _atom_site_label
 _atom_site_symmetry_multiplicity
 _atom_site_fract_x
 _atom_site_fract_y
 _atom_site_fract_z
 _atom_site_occupancy
  Mo  Mo0  1  0.22064400  0.54530100  0.34680900  1
  Mo  Mo1  1  0.22731581  0.54160880  0.58315321  1
  Mo  Mo2  1  0.77138609  0.45290057  0.38680631  1
  Mo  Mo3  1  0.77190168  0.44468380  0.62099734  1
  Mo  Mo4  1  0.41300066  0.22543463  0.37777453  1
  Mo  Mo5  1  0.42261353  0.21469633  0.61234567  1
  Mo  Mo6  1  0.57902104  0.77313300  0.35697072  1
  Mo  Mo7  1  0.58386281  0.77258833  0.59137742  1
  Mo  Mo8  1  0.54531000  0.41281400  0.30171000  1
  Mo  Mo9  1  0.54602123  0.41398476  0.53591526  1
  Mo  Mo10  1  0.44943164  0.58393651  0.43359112  1
  Mo  Mo11  1  0.45028043  0.57275768  0.66896183  1
  Se  Se12  1  0.12201878  0.37812260  0.42603329  1
  Se  Se13  1  0.12319275  0.36103327  0.65991469  1
  Se  Se14  1  0.87245300  0.62115500  0.30846200  1
  Se  Se15  1  0.87485692  0.62120339  0.54332567  1
  Se  Se16  1  0.75031900  0.12757300  0.33876000  1
  Se  Se17  1  0.75044585  0.12236542  0.56965211  1
  Se  Se18  1  0.24495687  0.87149898  0.39701385  1
  Se  Se19  1  0.25391795  0.86650137  0.63495127  1
  Se  Se20  1  0.37880700  0.75023000  0.27992500  1
  Se  Se21  1  0.37477400  0.74807665  0.51503439  1
  Se  Se22  1  0.61922221  0.24801389  0.45418282  1
  Se  Se23  1  0.62184605  0.24587140  0.69038203  1
  Se  Se24  1  0.21114700  0.21116100  0.29951300  1
  Se  Se25  1  0.21778031  0.20453239  0.53491910  1
  Se  Se26  1  0.77996281  0.78733497  0.43520714  1
  Se  Se27  1  0.77750726  0.78429739  0.66956948  1
  O  O28  1  0.42755085  0.60664488  0.78074916  1
  C  C29  1  0.43170033  0.60547916  0.73917149  1
