# generated using pymatgen
data_Fe4Mo12HSe16
_symmetry_space_group_name_H-M   'P 1'
_cell_length_a   6.73059675
_cell_length_b   6.68252955
_cell_length_c   28.41042900
_cell_angle_alpha   94.71078376
_cell_angle_beta   91.18717718
_cell_angle_gamma   96.76332947
_symmetry_Int_Tables_number   1
_chemical_formula_structural   Fe4Mo12HSe16
_chemical_formula_sum   'Fe4 Mo12 H1 Se16'
_cell_volume   1264.05235895
_cell_formula_units_Z   1
loop_
 _symmetry_equiv_pos_site_id
 _symmetry_equiv_pos_as_xyz
  1  'x, y, z'
loop_
 _atom_site_type_symbol
 _atom_site_label
 _atom_site_symmetry_multiplicity
 _atom_site_fract_x
 _atom_site_fract_y
 _atom_site_fract_z
 _atom_site_occupancy
  Fe  Fe0  1  0.92090091  0.14902777  0.48055878  1
  Fe  Fe1  1  0.81755606  0.10951949  0.65554693  1
  Fe  Fe2  1  0.08366100  0.85003700  0.25310200  1
  Fe  Fe3  1  0.08544763  0.85125086  0.48737413  1
  Mo  Mo4  1  0.23115165  0.53722194  0.34784844  1
  Mo  Mo5  1  0.22694090  0.54041900  0.58442727  1
  Mo  Mo6  1  0.76869740  0.46073822  0.38765393  1
  Mo  Mo7  1  0.75680761  0.46127581  0.62381554  1
  Mo  Mo8  1  0.41074905  0.22839723  0.37746948  1
  Mo  Mo9  1  0.40231938  0.22685478  0.61507652  1
  Mo  Mo10  1  0.59053812  0.77365761  0.35818288  1
  Mo  Mo11  1  0.58556434  0.77387395  0.59575873  1
  Mo  Mo12  1  0.54876300  0.41297700  0.30450800  1
  Mo  Mo13  1  0.54537784  0.41678067  0.54056200  1
  Mo  Mo14  1  0.45037423  0.58818320  0.43198879  1
  Mo  Mo15  1  0.43905268  0.58533703  0.66605363  1
  Se  Se16  1  0.11575962  0.36241518  0.42393978  1
  Se  Se17  1  0.10339679  0.36660717  0.65928061  1
  Se  Se18  1  0.88453700  0.63734700  0.31138600  1
  Se  Se19  1  0.88040264  0.64365805  0.54924215  1
  Se  Se20  1  0.73371229  0.13574006  0.33434687  1
  Se  Se21  1  0.73270214  0.12925768  0.56943261  1
  Se  Se22  1  0.26026741  0.86567624  0.39987931  1
  Se  Se23  1  0.25935967  0.86666460  0.63809805  1
  Se  Se24  1  0.39326800  0.73478000  0.28166600  1
  Se  Se25  1  0.39169488  0.73659284  0.51813473  1
  Se  Se26  1  0.60736682  0.26544081  0.45461531  1
  Se  Se27  1  0.57929820  0.28319718  0.69767558  1
  Se  Se28  1  0.21444700  0.18780600  0.29890600  1
  Se  Se29  1  0.21096720  0.19179160  0.53523828  1
  Se  Se30  1  0.78570839  0.81166886  0.43710425  1
  Se  Se31  1  0.78120531  0.78033971  0.68050556  1
  H  H32  1  0.90764712  0.10826498  0.70463047  1
