# generated using pymatgen
data_Fe2Mo12H3S16N
_symmetry_space_group_name_H-M   'P 1'
_cell_length_a   6.45357383
_cell_length_b   6.40729292
_cell_length_c   27.84326400
_cell_angle_alpha   93.27559587
_cell_angle_beta   96.42128096
_cell_angle_gamma   96.53695481
_symmetry_Int_Tables_number   1
_chemical_formula_structural   Fe2Mo12H3S16N
_chemical_formula_sum   'Fe2 Mo12 H3 S16 N1'
_cell_volume   1133.80606000
_cell_formula_units_Z   1
loop_
 _symmetry_equiv_pos_site_id
 _symmetry_equiv_pos_as_xyz
  1  'x, y, z'
loop_
 _atom_site_type_symbol
 _atom_site_label
 _atom_site_symmetry_multiplicity
 _atom_site_fract_x
 _atom_site_fract_y
 _atom_site_fract_z
 _atom_site_occupancy
  Fe  Fe0  1  0.93713016  0.15066018  0.45748888  1
  Fe  Fe1  1  0.89031161  0.13225766  0.68320262  1
  Mo  Mo2  1  0.21324400  0.54241800  0.34209900  1
  Mo  Mo3  1  0.19685868  0.53999913  0.57240140  1
  Mo  Mo4  1  0.79538630  0.45752953  0.38830668  1
  Mo  Mo5  1  0.76198216  0.44909675  0.61667484  1
  Mo  Mo6  1  0.40987068  0.21843678  0.37420181  1
  Mo  Mo7  1  0.38510461  0.21462990  0.60461216  1
  Mo  Mo8  1  0.59439000  0.78338100  0.35611600  1
  Mo  Mo9  1  0.57348471  0.77790098  0.58550514  1
  Mo  Mo10  1  0.53839000  0.41017300  0.30039200  1
  Mo  Mo11  1  0.52300234  0.40975398  0.52925126  1
  Mo  Mo12  1  0.46133049  0.59919805  0.43205434  1
  Mo  Mo13  1  0.44319566  0.58615051  0.65852826  1
  S  S14  1  0.14236277  0.36455213  0.41617832  1
  S  S15  1  0.11640892  0.35824209  0.64797162  1
  S  S16  1  0.86398200  0.63520500  0.31550800  1
  S  S17  1  0.84744118  0.63640791  0.54512872  1
  S  S18  1  0.72141400  0.13929400  0.33709200  1
  S  S19  1  0.69834642  0.13323474  0.56550543  1
  S  S20  1  0.27778377  0.86209685  0.39301432  1
  S  S21  1  0.25902537  0.85820556  0.62577321  1
  S  S22  1  0.37280800  0.72589200  0.28016400  1
  S  S23  1  0.35360687  0.72365352  0.50977908  1
  S  S24  1  0.62246656  0.27392752  0.45155738  1
  S  S25  1  0.59042606  0.27551140  0.68372893  1
  S  S26  1  0.19164500  0.20201400  0.29537700  1
  S  S27  1  0.17504957  0.20191491  0.52465407  1
  S  S28  1  0.81280092  0.80162747  0.43599769  1
  S  S29  1  0.78855075  0.78381276  0.66562879  1
  N  N30  1  0.97724003  0.14084352  0.75749327  1
  H  H31  1  0.13562625  0.15590242  0.76897368  1
  H  H32  1  0.91848339  0.26265344  0.77529038  1
  H  H33  1  0.91296518  0.00463845  0.77105297  1
