# generated using pymatgen
data_FeMo6S8N
_symmetry_space_group_name_H-M   'P 1'
_cell_length_a   6.45357383
_cell_length_b   6.40729292
_cell_length_c   27.84326400
_cell_angle_alpha   93.27559587
_cell_angle_beta   96.42128096
_cell_angle_gamma   96.53695481
_symmetry_Int_Tables_number   1
_chemical_formula_structural   FeMo6S8N
_chemical_formula_sum   'Fe2 Mo12 S16 N2'
_cell_volume   1133.80606000
_cell_formula_units_Z   2
loop_
 _symmetry_equiv_pos_site_id
 _symmetry_equiv_pos_as_xyz
  1  'x, y, z'
loop_
 _atom_site_type_symbol
 _atom_site_label
 _atom_site_symmetry_multiplicity
 _atom_site_fract_x
 _atom_site_fract_y
 _atom_site_fract_z
 _atom_site_occupancy
  Fe  Fe0  1  0.94299680  0.15248569  0.46049715  1
  Fe  Fe1  1  0.86551654  0.09827943  0.64491894  1
  Mo  Mo2  1  0.21324400  0.54241800  0.34209900  1
  Mo  Mo3  1  0.22181558  0.54114369  0.57630168  1
  Mo  Mo4  1  0.79606081  0.45772522  0.38859737  1
  Mo  Mo5  1  0.78636794  0.45782848  0.61793017  1
  Mo  Mo6  1  0.41099473  0.21976776  0.37461290  1
  Mo  Mo7  1  0.41378569  0.21069883  0.60726691  1
  Mo  Mo8  1  0.59439000  0.78338100  0.35611600  1
  Mo  Mo9  1  0.59432819  0.77955242  0.58819707  1
  Mo  Mo10  1  0.53839000  0.41017300  0.30039200  1
  Mo  Mo11  1  0.54215577  0.41544808  0.53184502  1
  Mo  Mo12  1  0.46509787  0.60083531  0.43242344  1
  Mo  Mo13  1  0.47155895  0.57788615  0.66364613  1
  S  S14  1  0.14394464  0.36678136  0.41713694  1
  S  S15  1  0.14048219  0.35554448  0.64961052  1
  S  S16  1  0.86398200  0.63520500  0.31550800  1
  S  S17  1  0.87040698  0.64346572  0.54660513  1
  S  S18  1  0.72141400  0.13929400  0.33709200  1
  S  S19  1  0.72374651  0.13053872  0.56501404  1
  S  S20  1  0.27901964  0.86240617  0.39362167  1
  S  S21  1  0.28674968  0.85575021  0.63049825  1
  S  S22  1  0.37280800  0.72589200  0.28016400  1
  S  S23  1  0.37117708  0.72674977  0.51222741  1
  S  S24  1  0.62548006  0.27547014  0.45230756  1
  S  S25  1  0.63385738  0.26449279  0.68594653  1
  S  S26  1  0.19164500  0.20201400  0.29537700  1
  S  S27  1  0.19425632  0.20739399  0.52730056  1
  S  S28  1  0.81522094  0.80480826  0.43567157  1
  S  S29  1  0.81591356  0.77579108  0.67019985  1
  N  N30  1  0.46252816  0.62639378  0.74063320  1
  N  N31  1  0.47181735  0.62556659  0.78091620  1
