# generated using pymatgen
data_Pd27CO
_symmetry_space_group_name_H-M   'P 1'
_cell_length_a   8.25688963
_cell_length_b   8.25682385
_cell_length_c   22.52889700
_cell_angle_alpha   86.49742100
_cell_angle_beta   86.49797035
_cell_angle_gamma   59.99972739
_symmetry_Int_Tables_number   1
_chemical_formula_structural   Pd27CO
_chemical_formula_sum   'Pd27 C1 O1'
_cell_volume   1326.83127031
_cell_formula_units_Z   1
loop_
 _symmetry_equiv_pos_site_id
 _symmetry_equiv_pos_as_xyz
  1  'x, y, z'
loop_
 _atom_site_type_symbol
 _atom_site_label
 _atom_site_symmetry_multiplicity
 _atom_site_fract_x
 _atom_site_fract_y
 _atom_site_fract_z
 _atom_site_occupancy
  Pd  Pd0  1  0.06666700  0.06666600  0.40000000  1
  Pd  Pd1  1  0.06666700  0.39999900  0.40000000  1
  Pd  Pd2  1  0.06666700  0.73333300  0.40000000  1
  Pd  Pd3  1  0.40000000  0.06666600  0.40000000  1
  Pd  Pd4  1  0.40000000  0.39999900  0.40000000  1
  Pd  Pd5  1  0.40000000  0.73333300  0.40000000  1
  Pd  Pd6  1  0.73333300  0.06666600  0.40000000  1
  Pd  Pd7  1  0.73333300  0.39999900  0.40000000  1
  Pd  Pd8  1  0.73333300  0.73333300  0.40000000  1
  Pd  Pd9  1  0.16664095  0.16662953  0.50130170  1
  Pd  Pd10  1  0.16666201  0.49970840  0.50128852  1
  Pd  Pd11  1  0.16615778  0.83341602  0.50132426  1
  Pd  Pd12  1  0.49966207  0.16667796  0.50129427  1
  Pd  Pd13  1  0.50004265  0.50007196  0.50257109  1
  Pd  Pd14  1  0.50002796  0.83251346  0.50253931  1
  Pd  Pd15  1  0.83337974  0.16619833  0.50131114  1
  Pd  Pd16  1  0.83259134  0.50001612  0.50247194  1
  Pd  Pd17  1  0.83338258  0.83341714  0.50132114  1
  Pd  Pd18  1  0.26628022  0.26636961  0.60337268  1
  Pd  Pd19  1  0.26389868  0.59979231  0.60283572  1
  Pd  Pd20  1  0.26390868  0.93548180  0.60283516  1
  Pd  Pd21  1  0.59967842  0.26400849  0.60283947  1
  Pd  Pd22  1  0.59918998  0.59941258  0.60621527  1
  Pd  Pd23  1  0.59966433  0.93550359  0.60283960  1
  Pd  Pd24  1  0.93536871  0.26403473  0.60282967  1
  Pd  Pd25  1  0.93538850  0.59976692  0.60283237  1
  Pd  Pd26  1  0.93295439  0.93304712  0.60334939  1
  O  O27  1  0.59069757  0.58298020  0.73991222  1
  C  C28  1  0.59432488  0.58922475  0.68831534  1
