# generated using pymatgen
data_HPd27N2
_symmetry_space_group_name_H-M   'P 1'
_cell_length_a   8.25688963
_cell_length_b   8.25682385
_cell_length_c   22.52889700
_cell_angle_alpha   86.49742100
_cell_angle_beta   86.49797035
_cell_angle_gamma   59.99972739
_symmetry_Int_Tables_number   1
_chemical_formula_structural   HPd27N2
_chemical_formula_sum   'Pd27 H1 N2'
_cell_volume   1326.83127031
_cell_formula_units_Z   1
loop_
 _symmetry_equiv_pos_site_id
 _symmetry_equiv_pos_as_xyz
  1  'x, y, z'
loop_
 _atom_site_type_symbol
 _atom_site_label
 _atom_site_symmetry_multiplicity
 _atom_site_fract_x
 _atom_site_fract_y
 _atom_site_fract_z
 _atom_site_occupancy
  Pd  Pd0  1  0.06666700  0.06666600  0.40000000  1
  Pd  Pd1  1  0.06666700  0.39999900  0.40000000  1
  Pd  Pd2  1  0.06666700  0.73333300  0.40000000  1
  Pd  Pd3  1  0.40000000  0.06666600  0.40000000  1
  Pd  Pd4  1  0.40000000  0.39999900  0.40000000  1
  Pd  Pd5  1  0.40000000  0.73333300  0.40000000  1
  Pd  Pd6  1  0.73333300  0.06666600  0.40000000  1
  Pd  Pd7  1  0.73333300  0.39999900  0.40000000  1
  Pd  Pd8  1  0.73333300  0.73333300  0.40000000  1
  Pd  Pd9  1  0.16628455  0.16606984  0.50089416  1
  Pd  Pd10  1  0.16504833  0.50003175  0.50146275  1
  Pd  Pd11  1  0.16608248  0.83273877  0.50125288  1
  Pd  Pd12  1  0.49928398  0.16661273  0.50068686  1
  Pd  Pd13  1  0.49997321  0.50056261  0.50291467  1
  Pd  Pd14  1  0.49977816  0.83131956  0.50212771  1
  Pd  Pd15  1  0.83233780  0.16641351  0.50103322  1
  Pd  Pd16  1  0.83170259  0.49980865  0.50178830  1
  Pd  Pd17  1  0.83272761  0.83230529  0.50130105  1
  Pd  Pd18  1  0.26510757  0.26575833  0.60234243  1
  Pd  Pd19  1  0.26386522  0.59906032  0.60282749  1
  Pd  Pd20  1  0.26383467  0.93286558  0.60235120  1
  Pd  Pd21  1  0.59785777  0.26491429  0.60254889  1
  Pd  Pd22  1  0.59618075  0.59835592  0.60828014  1
  Pd  Pd23  1  0.59732370  0.93523316  0.60186236  1
  Pd  Pd24  1  0.93337633  0.26289632  0.60168816  1
  Pd  Pd25  1  0.93166270  0.59880423  0.60375475  1
  Pd  Pd26  1  0.93186362  0.93206997  0.60238470  1
  N  N27  1  0.66537807  0.59460061  0.68968539  1
  N  N28  1  0.58056450  0.59257333  0.73419914  1
  H  H29  1  0.63737808  0.59186654  0.77476758  1
