# generated using pymatgen
data_Fe2Mo12H(S8N)2
_symmetry_space_group_name_H-M   'P 1'
_cell_length_a   6.45357383
_cell_length_b   6.40729292
_cell_length_c   27.84326400
_cell_angle_alpha   93.27559587
_cell_angle_beta   96.42128096
_cell_angle_gamma   96.53695481
_symmetry_Int_Tables_number   1
_chemical_formula_structural   Fe2Mo12H(S8N)2
_chemical_formula_sum   'Fe2 Mo12 H1 S16 N2'
_cell_volume   1133.80606000
_cell_formula_units_Z   1
loop_
 _symmetry_equiv_pos_site_id
 _symmetry_equiv_pos_as_xyz
  1  'x, y, z'
loop_
 _atom_site_type_symbol
 _atom_site_label
 _atom_site_symmetry_multiplicity
 _atom_site_fract_x
 _atom_site_fract_y
 _atom_site_fract_z
 _atom_site_occupancy
  Fe  Fe0  1  0.94164040  0.15113514  0.46043014  1
  Fe  Fe1  1  0.86460717  0.09936907  0.64464049  1
  Mo  Mo2  1  0.21324400  0.54241800  0.34209900  1
  Mo  Mo3  1  0.21992659  0.53770035  0.57562883  1
  Mo  Mo4  1  0.79540370  0.45753297  0.38854894  1
  Mo  Mo5  1  0.78814760  0.45705213  0.61798739  1
  Mo  Mo6  1  0.41065903  0.21900768  0.37454904  1
  Mo  Mo7  1  0.41251824  0.20932822  0.60740556  1
  Mo  Mo8  1  0.59439000  0.78338100  0.35611600  1
  Mo  Mo9  1  0.59306689  0.77844325  0.58780722  1
  Mo  Mo10  1  0.53839000  0.41017300  0.30039200  1
  Mo  Mo11  1  0.54148564  0.41241663  0.53184902  1
  Mo  Mo12  1  0.46428728  0.59934995  0.43226851  1
  Mo  Mo13  1  0.47021903  0.58471813  0.66706715  1
  S  S14  1  0.14312067  0.36466734  0.41702853  1
  S  S15  1  0.14155942  0.35539496  0.64972822  1
  S  S16  1  0.86398200  0.63520500  0.31550800  1
  S  S17  1  0.86982616  0.63940739  0.54639526  1
  S  S18  1  0.72141400  0.13929400  0.33709200  1
  S  S19  1  0.72113194  0.12740022  0.56486770  1
  S  S20  1  0.27885458  0.86177908  0.39370414  1
  S  S21  1  0.28450138  0.85197553  0.62947652  1
  S  S22  1  0.37280800  0.72589200  0.28016400  1
  S  S23  1  0.37092701  0.72350499  0.51184896  1
  S  S24  1  0.62497779  0.27446624  0.45221970  1
  S  S25  1  0.63150613  0.25876679  0.68485100  1
  S  S26  1  0.19164500  0.20201400  0.29537700  1
  S  S27  1  0.19392419  0.20325268  0.52712213  1
  S  S28  1  0.81449609  0.80384925  0.43581588  1
  S  S29  1  0.81660964  0.77670286  0.66933343  1
  N  N30  1  0.47543195  0.63743850  0.73570124  1
  N  N31  1  0.48340267  0.66315974  0.77861447  1
  H  H32  1  0.58553569  0.58258039  0.80083050  1
