# generated using pymatgen
data_Fe2Mo12HS16
_symmetry_space_group_name_H-M   'P 1'
_cell_length_a   6.45357383
_cell_length_b   6.40729292
_cell_length_c   27.84326400
_cell_angle_alpha   93.27559587
_cell_angle_beta   96.42128096
_cell_angle_gamma   96.53695481
_symmetry_Int_Tables_number   1
_chemical_formula_structural   Fe2Mo12HS16
_chemical_formula_sum   'Fe2 Mo12 H1 S16'
_cell_volume   1133.80606000
_cell_formula_units_Z   1
loop_
 _symmetry_equiv_pos_site_id
 _symmetry_equiv_pos_as_xyz
  1  'x, y, z'
loop_
 _atom_site_type_symbol
 _atom_site_label
 _atom_site_symmetry_multiplicity
 _atom_site_fract_x
 _atom_site_fract_y
 _atom_site_fract_z
 _atom_site_occupancy
  Fe  Fe0  1  0.93857777  0.15276620  0.46031101  1
  Fe  Fe1  1  0.91897993  0.13493951  0.68041564  1
  Mo  Mo2  1  0.21324400  0.54241800  0.34209900  1
  Mo  Mo3  1  0.21216340  0.54460152  0.57398448  1
  Mo  Mo4  1  0.79225063  0.45854880  0.38819253  1
  Mo  Mo5  1  0.78429613  0.44943241  0.61826742  1
  Mo  Mo6  1  0.40971772  0.21852460  0.37459161  1
  Mo  Mo7  1  0.40444567  0.21758000  0.60696886  1
  Mo  Mo8  1  0.59439000  0.78338100  0.35611600  1
  Mo  Mo9  1  0.59067000  0.77949335  0.58753819  1
  Mo  Mo10  1  0.53839000  0.41017300  0.30039200  1
  Mo  Mo11  1  0.53570782  0.41108167  0.53120615  1
  Mo  Mo12  1  0.46139517  0.60005854  0.43243689  1
  Mo  Mo13  1  0.46362140  0.58802974  0.66065685  1
  S  S14  1  0.14164830  0.36482797  0.41703571  1
  S  S15  1  0.13827356  0.36575550  0.65021766  1
  S  S16  1  0.86398200  0.63520500  0.31550800  1
  S  S17  1  0.86231470  0.63606904  0.54680695  1
  S  S18  1  0.72141400  0.13929400  0.33709200  1
  S  S19  1  0.71462369  0.13518500  0.56657079  1
  S  S20  1  0.27778588  0.86159564  0.39354700  1
  S  S21  1  0.27729823  0.86108285  0.62828346  1
  S  S22  1  0.37280800  0.72589200  0.28016400  1
  S  S23  1  0.36890497  0.72774132  0.51178852  1
  S  S24  1  0.62172117  0.27428177  0.45186799  1
  S  S25  1  0.62150142  0.27945336  0.68570642  1
  S  S26  1  0.19164500  0.20201400  0.29537700  1
  S  S27  1  0.18801425  0.20605688  0.52688659  1
  S  S28  1  0.81119537  0.80461335  0.43589178  1
  S  S29  1  0.80740451  0.78661237  0.66814891  1
  H  H30  1  0.06517229  0.13579265  0.73000071  1
