# generated using pymatgen
data_Pd27CO2
_symmetry_space_group_name_H-M   'P 1'
_cell_length_a   8.25688963
_cell_length_b   8.25682385
_cell_length_c   22.52889700
_cell_angle_alpha   86.49742100
_cell_angle_beta   86.49797035
_cell_angle_gamma   59.99972739
_symmetry_Int_Tables_number   1
_chemical_formula_structural   Pd27CO2
_chemical_formula_sum   'Pd27 C1 O2'
_cell_volume   1326.83127031
_cell_formula_units_Z   1
loop_
 _symmetry_equiv_pos_site_id
 _symmetry_equiv_pos_as_xyz
  1  'x, y, z'
loop_
 _atom_site_type_symbol
 _atom_site_label
 _atom_site_symmetry_multiplicity
 _atom_site_fract_x
 _atom_site_fract_y
 _atom_site_fract_z
 _atom_site_occupancy
  Pd  Pd0  1  0.06666700  0.06666600  0.40000000  1
  Pd  Pd1  1  0.06666700  0.39999900  0.40000000  1
  Pd  Pd2  1  0.06666700  0.73333300  0.40000000  1
  Pd  Pd3  1  0.40000000  0.06666600  0.40000000  1
  Pd  Pd4  1  0.40000000  0.39999900  0.40000000  1
  Pd  Pd5  1  0.40000000  0.73333300  0.40000000  1
  Pd  Pd6  1  0.73333300  0.06666600  0.40000000  1
  Pd  Pd7  1  0.73333300  0.39999900  0.40000000  1
  Pd  Pd8  1  0.73333300  0.73333300  0.40000000  1
  Pd  Pd9  1  0.16624956  0.16688905  0.50163568  1
  Pd  Pd10  1  0.16633144  0.50040608  0.50161169  1
  Pd  Pd11  1  0.16688996  0.83321984  0.50165342  1
  Pd  Pd12  1  0.49978750  0.16678263  0.50161431  1
  Pd  Pd13  1  0.50014148  0.50075412  0.50276050  1
  Pd  Pd14  1  0.50023167  0.83215871  0.50241943  1
  Pd  Pd15  1  0.83287652  0.16720785  0.50157587  1
  Pd  Pd16  1  0.83175027  0.50070106  0.50265172  1
  Pd  Pd17  1  0.83271686  0.83331188  0.50164282  1
  Pd  Pd18  1  0.26601505  0.26721884  0.60343592  1
  Pd  Pd19  1  0.26543456  0.60027243  0.60359246  1
  Pd  Pd20  1  0.26541045  0.93427884  0.60313801  1
  Pd  Pd21  1  0.59954055  0.26654347  0.60327474  1
  Pd  Pd22  1  0.59888261  0.59984610  0.61026281  1
  Pd  Pd23  1  0.59939346  0.93452244  0.60316724  1
  Pd  Pd24  1  0.93331568  0.26626936  0.60328057  1
  Pd  Pd25  1  0.93395265  0.60021686  0.60342070  1
  Pd  Pd26  1  0.93278008  0.93373408  0.60316405  1
  C  C27  1  0.59762042  0.59470635  0.69980915  1
  O  O28  1  0.51914206  0.75210331  0.72237380  1
  O  O29  1  0.67527061  0.43437099  0.72390823  1
