# generated using pymatgen
data_HPd27CO
_symmetry_space_group_name_H-M   'P 1'
_cell_length_a   8.25688963
_cell_length_b   8.25682385
_cell_length_c   22.52889700
_cell_angle_alpha   86.49742100
_cell_angle_beta   86.49797035
_cell_angle_gamma   59.99972739
_symmetry_Int_Tables_number   1
_chemical_formula_structural   HPd27CO
_chemical_formula_sum   'Pd27 H1 C1 O1'
_cell_volume   1326.83127031
_cell_formula_units_Z   1
loop_
 _symmetry_equiv_pos_site_id
 _symmetry_equiv_pos_as_xyz
  1  'x, y, z'
loop_
 _atom_site_type_symbol
 _atom_site_label
 _atom_site_symmetry_multiplicity
 _atom_site_fract_x
 _atom_site_fract_y
 _atom_site_fract_z
 _atom_site_occupancy
  Pd  Pd0  1  0.06666700  0.06666600  0.40000000  1
  Pd  Pd1  1  0.06666700  0.39999900  0.40000000  1
  Pd  Pd2  1  0.06666700  0.73333300  0.40000000  1
  Pd  Pd3  1  0.40000000  0.06666600  0.40000000  1
  Pd  Pd4  1  0.40000000  0.39999900  0.40000000  1
  Pd  Pd5  1  0.40000000  0.73333300  0.40000000  1
  Pd  Pd6  1  0.73333300  0.06666600  0.40000000  1
  Pd  Pd7  1  0.73333300  0.39999900  0.40000000  1
  Pd  Pd8  1  0.73333300  0.73333300  0.40000000  1
  Pd  Pd9  1  0.16753617  0.17022770  0.50110298  1
  Pd  Pd10  1  0.16751834  0.50390623  0.50262959  1
  Pd  Pd11  1  0.16754200  0.83612625  0.50276280  1
  Pd  Pd12  1  0.50124281  0.17036513  0.50260818  1
  Pd  Pd13  1  0.50073232  0.50332544  0.50197395  1
  Pd  Pd14  1  0.50113741  0.83680005  0.50238051  1
  Pd  Pd15  1  0.83378404  0.17023932  0.50275891  1
  Pd  Pd16  1  0.83450985  0.50344989  0.50242240  1
  Pd  Pd17  1  0.83424589  0.83675539  0.50221160  1
  Pd  Pd18  1  0.26641157  0.27132599  0.60321859  1
  Pd  Pd19  1  0.26521194  0.60675094  0.60830731  1
  Pd  Pd20  1  0.26635989  0.94279335  0.60310975  1
  Pd  Pd21  1  0.60155196  0.27151926  0.60837864  1
  Pd  Pd22  1  0.60276129  0.60787495  0.60646917  1
  Pd  Pd23  1  0.60212188  0.93987485  0.60419806  1
  Pd  Pd24  1  0.93796738  0.27135047  0.60377941  1
  Pd  Pd25  1  0.93452866  0.60672096  0.60451534  1
  Pd  Pd26  1  0.93380727  0.93942066  0.60442237  1
  C  C27  1  0.48422833  0.49422039  0.65882629  1
  H  H28  1  0.59560518  0.46836309  0.73472882  1
  O  O29  1  0.47542725  0.49164282  0.71873994  1
