# generated using pymatgen
data_Fe2Mo12H(S8N)2
_symmetry_space_group_name_H-M   'P 1'
_cell_length_a   6.45357383
_cell_length_b   6.40729292
_cell_length_c   27.84326400
_cell_angle_alpha   93.27559587
_cell_angle_beta   96.42128096
_cell_angle_gamma   96.53695481
_symmetry_Int_Tables_number   1
_chemical_formula_structural   Fe2Mo12H(S8N)2
_chemical_formula_sum   'Fe2 Mo12 H1 S16 N2'
_cell_volume   1133.80606000
_cell_formula_units_Z   1
loop_
 _symmetry_equiv_pos_site_id
 _symmetry_equiv_pos_as_xyz
  1  'x, y, z'
loop_
 _atom_site_type_symbol
 _atom_site_label
 _atom_site_symmetry_multiplicity
 _atom_site_fract_x
 _atom_site_fract_y
 _atom_site_fract_z
 _atom_site_occupancy
  Fe  Fe0  1  0.93902506  0.15100297  0.45869545  1
  Fe  Fe1  1  0.90375343  0.13896177  0.68329961  1
  Mo  Mo2  1  0.21324400  0.54241800  0.34209900  1
  Mo  Mo3  1  0.20308467  0.54274192  0.57235163  1
  Mo  Mo4  1  0.79530744  0.45789797  0.38827692  1
  Mo  Mo5  1  0.77298340  0.45109522  0.61654824  1
  Mo  Mo6  1  0.41021905  0.21890317  0.37427499  1
  Mo  Mo7  1  0.39507061  0.21654113  0.60499739  1
  Mo  Mo8  1  0.59439000  0.78338100  0.35611600  1
  Mo  Mo9  1  0.58157652  0.77919406  0.58565363  1
  Mo  Mo10  1  0.53839000  0.41017300  0.30039200  1
  Mo  Mo11  1  0.52905347  0.41075954  0.52932909  1
  Mo  Mo12  1  0.46160591  0.59965585  0.43204137  1
  Mo  Mo13  1  0.45454370  0.58928028  0.65871554  1
  S  S14  1  0.14237747  0.36477751  0.41641749  1
  S  S15  1  0.12696605  0.36537373  0.64783590  1
  S  S16  1  0.86398200  0.63520500  0.31550800  1
  S  S17  1  0.85422788  0.63704983  0.54487578  1
  S  S18  1  0.72141400  0.13929400  0.33709200  1
  S  S19  1  0.70652785  0.13524052  0.56551455  1
  S  S20  1  0.27771610  0.86233689  0.39312817  1
  S  S21  1  0.26730577  0.86042869  0.62608308  1
  S  S22  1  0.37280800  0.72589200  0.28016400  1
  S  S23  1  0.36069265  0.72610479  0.51007242  1
  S  S24  1  0.62340962  0.27424241  0.45146697  1
  S  S25  1  0.60305166  0.27707801  0.68361743  1
  S  S26  1  0.19164500  0.20201400  0.29537700  1
  S  S27  1  0.18072289  0.20415967  0.52523154  1
  S  S28  1  0.81263045  0.80240516  0.43598869  1
  S  S29  1  0.79630521  0.78953467  0.66514376  1
  N  N30  1  0.96997176  0.13793584  0.74404976  1
  N  N31  1  0.92514057  0.11353883  0.78439443  1
  H  H32  1  0.04512394  0.13605502  0.81312861  1
