# generated using pymatgen
data_Fe2Mo12H3S16N
_symmetry_space_group_name_H-M   'P 1'
_cell_length_a   6.45357383
_cell_length_b   6.40729292
_cell_length_c   27.84326400
_cell_angle_alpha   93.27559587
_cell_angle_beta   96.42128096
_cell_angle_gamma   96.53695481
_symmetry_Int_Tables_number   1
_chemical_formula_structural   Fe2Mo12H3S16N
_chemical_formula_sum   'Fe2 Mo12 H3 S16 N1'
_cell_volume   1133.80606000
_cell_formula_units_Z   1
loop_
 _symmetry_equiv_pos_site_id
 _symmetry_equiv_pos_as_xyz
  1  'x, y, z'
loop_
 _atom_site_type_symbol
 _atom_site_label
 _atom_site_symmetry_multiplicity
 _atom_site_fract_x
 _atom_site_fract_y
 _atom_site_fract_z
 _atom_site_occupancy
  Fe  Fe0  1  0.94262643  0.15089085  0.46029650  1
  Fe  Fe1  1  0.86614435  0.09241004  0.64392796  1
  Mo  Mo2  1  0.21324400  0.54241800  0.34209900  1
  Mo  Mo3  1  0.22181911  0.53486925  0.57559274  1
  Mo  Mo4  1  0.79584155  0.45753693  0.38842733  1
  Mo  Mo5  1  0.78824349  0.45141634  0.61692806  1
  Mo  Mo6  1  0.41078208  0.21865866  0.37445068  1
  Mo  Mo7  1  0.41537821  0.20370228  0.60631071  1
  Mo  Mo8  1  0.59439000  0.78338100  0.35611600  1
  Mo  Mo9  1  0.59486194  0.77426775  0.58748665  1
  Mo  Mo10  1  0.53839000  0.41017300  0.30039200  1
  Mo  Mo11  1  0.54283686  0.41048833  0.53103647  1
  Mo  Mo12  1  0.46454336  0.59923350  0.43223376  1
  Mo  Mo13  1  0.47318543  0.57080747  0.66214910  1
  S  S14  1  0.14348184  0.36521587  0.41695240  1
  S  S15  1  0.14222131  0.34789192  0.64891075  1
  S  S16  1  0.86398200  0.63520500  0.31550800  1
  S  S17  1  0.87100869  0.63865179  0.54589804  1
  S  S18  1  0.72141400  0.13929400  0.33709200  1
  S  S19  1  0.72498344  0.12476006  0.56385783  1
  S  S20  1  0.27902966  0.86166808  0.39375223  1
  S  S21  1  0.28803084  0.84946017  0.63002590  1
  S  S22  1  0.37280800  0.72589200  0.28016400  1
  S  S23  1  0.37053558  0.72187802  0.51192810  1
  S  S24  1  0.62524775  0.27353931  0.45176954  1
  S  S25  1  0.63724445  0.25986260  0.68534154  1
  S  S26  1  0.19164500  0.20201400  0.29537700  1
  S  S27  1  0.19565053  0.20131425  0.52656963  1
  S  S28  1  0.81424755  0.80358761  0.43570832  1
  S  S29  1  0.81693466  0.76985111  0.66941297  1
  N  N30  1  0.44938102  0.63214982  0.74221614  1
  H  H31  1  0.59542603  0.67353412  0.76145766  1
  H  H32  1  0.35893918  0.74835713  0.75079878  1
  H  H33  1  0.38613600  0.49743639  0.75627904  1
