# generated using pymatgen
data_Pd27CO
_symmetry_space_group_name_H-M   'P 1'
_cell_length_a   8.25688963
_cell_length_b   8.25682385
_cell_length_c   22.52889700
_cell_angle_alpha   86.49742100
_cell_angle_beta   86.49797035
_cell_angle_gamma   59.99972739
_symmetry_Int_Tables_number   1
_chemical_formula_structural   Pd27CO
_chemical_formula_sum   'Pd27 C1 O1'
_cell_volume   1326.83127031
_cell_formula_units_Z   1
loop_
 _symmetry_equiv_pos_site_id
 _symmetry_equiv_pos_as_xyz
  1  'x, y, z'
loop_
 _atom_site_type_symbol
 _atom_site_label
 _atom_site_symmetry_multiplicity
 _atom_site_fract_x
 _atom_site_fract_y
 _atom_site_fract_z
 _atom_site_occupancy
  Pd  Pd0  1  0.06666700  0.06666600  0.40000000  1
  Pd  Pd1  1  0.06666700  0.39999900  0.40000000  1
  Pd  Pd2  1  0.06666700  0.73333300  0.40000000  1
  Pd  Pd3  1  0.40000000  0.06666600  0.40000000  1
  Pd  Pd4  1  0.40000000  0.39999900  0.40000000  1
  Pd  Pd5  1  0.40000000  0.73333300  0.40000000  1
  Pd  Pd6  1  0.73333300  0.06666600  0.40000000  1
  Pd  Pd7  1  0.73333300  0.39999900  0.40000000  1
  Pd  Pd8  1  0.73333300  0.73333300  0.40000000  1
  Pd  Pd9  1  0.16664316  0.16666713  0.50141750  1
  Pd  Pd10  1  0.16666408  0.49962877  0.50141652  1
  Pd  Pd11  1  0.16608145  0.83344061  0.50135377  1
  Pd  Pd12  1  0.49957506  0.16670596  0.50141116  1
  Pd  Pd13  1  0.50025867  0.50030450  0.50270197  1
  Pd  Pd14  1  0.50022260  0.83207876  0.50262308  1
  Pd  Pd15  1  0.83338822  0.16614010  0.50135695  1
  Pd  Pd16  1  0.83211462  0.50023409  0.50256858  1
  Pd  Pd17  1  0.83338397  0.83343025  0.50136259  1
  Pd  Pd18  1  0.26620626  0.26633899  0.60350483  1
  Pd  Pd19  1  0.26368693  0.59967414  0.60303342  1
  Pd  Pd20  1  0.26372997  0.93561511  0.60301732  1
  Pd  Pd21  1  0.59950039  0.26384130  0.60304310  1
  Pd  Pd22  1  0.59897529  0.59927823  0.60660470  1
  Pd  Pd23  1  0.59947248  0.93564315  0.60305270  1
  Pd  Pd24  1  0.93545999  0.26390477  0.60302836  1
  Pd  Pd25  1  0.93546105  0.59962712  0.60305214  1
  Pd  Pd26  1  0.93292225  0.93304789  0.60315050  1
  O  O27  1  0.59213763  0.58564151  0.74021446  1
  C  C28  1  0.59543193  0.59095334  0.68847481  1
