# generated using pymatgen
data_Mo12HSe16
_symmetry_space_group_name_H-M   'P 1'
_cell_length_a   6.61417350
_cell_length_b   6.61583473
_cell_length_c   28.23028900
_cell_angle_alpha   91.53841057
_cell_angle_beta   91.51120564
_cell_angle_gamma   91.52367391
_symmetry_Int_Tables_number   1
_chemical_formula_structural   Mo12HSe16
_chemical_formula_sum   'Mo12 H1 Se16'
_cell_volume   1233.97341125
_cell_formula_units_Z   1
loop_
 _symmetry_equiv_pos_site_id
 _symmetry_equiv_pos_as_xyz
  1  'x, y, z'
loop_
 _atom_site_type_symbol
 _atom_site_label
 _atom_site_symmetry_multiplicity
 _atom_site_fract_x
 _atom_site_fract_y
 _atom_site_fract_z
 _atom_site_occupancy
  Mo  Mo0  1  0.22064400  0.54530100  0.34680900  1
  Mo  Mo1  1  0.22386050  0.54228737  0.58283133  1
  Mo  Mo2  1  0.76842158  0.45220597  0.38690556  1
  Mo  Mo3  1  0.77363659  0.44497471  0.62192462  1
  Mo  Mo4  1  0.41213271  0.22534773  0.37793370  1
  Mo  Mo5  1  0.42167836  0.21240142  0.61229352  1
  Mo  Mo6  1  0.57803661  0.77149433  0.35703284  1
  Mo  Mo7  1  0.58406121  0.77428971  0.59119801  1
  Mo  Mo8  1  0.54531000  0.41281400  0.30171000  1
  Mo  Mo9  1  0.54417823  0.41329279  0.53677635  1
  Mo  Mo10  1  0.44673491  0.58287580  0.43377553  1
  Mo  Mo11  1  0.45457158  0.57321808  0.66690123  1
  Se  Se12  1  0.12024497  0.37665732  0.42605236  1
  Se  Se13  1  0.12460065  0.36470493  0.65993498  1
  Se  Se14  1  0.87245300  0.62115500  0.30846200  1
  Se  Se15  1  0.87332802  0.62083713  0.54384603  1
  Se  Se16  1  0.75031900  0.12757300  0.33876000  1
  Se  Se17  1  0.75143317  0.12304670  0.57096346  1
  Se  Se18  1  0.24406782  0.87081417  0.39734295  1
  Se  Se19  1  0.25399544  0.86649310  0.63453438  1
  Se  Se20  1  0.37880700  0.75023000  0.27992500  1
  Se  Se21  1  0.37290236  0.74918914  0.51552059  1
  Se  Se22  1  0.61689025  0.24807604  0.45480501  1
  Se  Se23  1  0.61918727  0.24446669  0.69084284  1
  Se  Se24  1  0.21114700  0.21116100  0.29951300  1
  Se  Se25  1  0.21256843  0.20452445  0.53575436  1
  Se  Se26  1  0.77651605  0.78634392  0.43562059  1
  Se  Se27  1  0.78236499  0.78609441  0.66883577  1
  H  H28  1  0.42671121  0.63335364  0.73073640  1
