# generated using pymatgen
data_Fe2Mo12HS16
_symmetry_space_group_name_H-M   'P 1'
_cell_length_a   6.45357383
_cell_length_b   6.40729292
_cell_length_c   27.84326400
_cell_angle_alpha   93.27559587
_cell_angle_beta   96.42128096
_cell_angle_gamma   96.53695481
_symmetry_Int_Tables_number   1
_chemical_formula_structural   Fe2Mo12HS16
_chemical_formula_sum   'Fe2 Mo12 H1 S16'
_cell_volume   1133.80606000
_cell_formula_units_Z   1
loop_
 _symmetry_equiv_pos_site_id
 _symmetry_equiv_pos_as_xyz
  1  'x, y, z'
loop_
 _atom_site_type_symbol
 _atom_site_label
 _atom_site_symmetry_multiplicity
 _atom_site_fract_x
 _atom_site_fract_y
 _atom_site_fract_z
 _atom_site_occupancy
  Fe  Fe0  1  0.93991855  0.15264905  0.45998764  1
  Fe  Fe1  1  0.85426928  0.10609065  0.65227816  1
  Mo  Mo2  1  0.21324400  0.54241800  0.34209900  1
  Mo  Mo3  1  0.20926138  0.54266392  0.57451727  1
  Mo  Mo4  1  0.79446178  0.45834578  0.38843126  1
  Mo  Mo5  1  0.77072022  0.46044529  0.61795378  1
  Mo  Mo6  1  0.41078076  0.22001399  0.37469334  1
  Mo  Mo7  1  0.40018560  0.21457661  0.60708324  1
  Mo  Mo8  1  0.59439000  0.78338100  0.35611600  1
  Mo  Mo9  1  0.58182059  0.78192250  0.58817302  1
  Mo  Mo10  1  0.53839000  0.41017300  0.30039200  1
  Mo  Mo11  1  0.53318092  0.41611271  0.53159156  1
  Mo  Mo12  1  0.46274490  0.60106502  0.43236774  1
  Mo  Mo13  1  0.45018743  0.58144164  0.66071689  1
  S  S14  1  0.14248041  0.36582883  0.41701081  1
  S  S15  1  0.12191196  0.36064094  0.64782070  1
  S  S16  1  0.86398200  0.63520500  0.31550800  1
  S  S17  1  0.85849192  0.64563942  0.54669999  1
  S  S18  1  0.72141400  0.13929400  0.33709200  1
  S  S19  1  0.71423043  0.13397616  0.56705307  1
  S  S20  1  0.27834199  0.86273052  0.39344898  1
  S  S21  1  0.26787031  0.85896235  0.62888295  1
  S  S22  1  0.37280800  0.72589200  0.28016400  1
  S  S23  1  0.36426511  0.72822720  0.51144352  1
  S  S24  1  0.62358775  0.27667230  0.45250109  1
  S  S25  1  0.61155209  0.27683541  0.68733990  1
  S  S26  1  0.19164500  0.20201400  0.29537700  1
  S  S27  1  0.18587729  0.20566998  0.52702930  1
  S  S28  1  0.81299345  0.80451773  0.43585825  1
  S  S29  1  0.79153059  0.77681320  0.67097876  1
  H  H30  1  0.98914888  0.09530817  0.69984216  1
