# generated using pymatgen
data_Fe4Mo12H3Se16N
_symmetry_space_group_name_H-M   'P 1'
_cell_length_a   6.73059675
_cell_length_b   6.68252955
_cell_length_c   28.41042900
_cell_angle_alpha   94.71078376
_cell_angle_beta   91.18717718
_cell_angle_gamma   96.76332947
_symmetry_Int_Tables_number   1
_chemical_formula_structural   Fe4Mo12H3Se16N
_chemical_formula_sum   'Fe4 Mo12 H3 Se16 N1'
_cell_volume   1264.05235895
_cell_formula_units_Z   1
loop_
 _symmetry_equiv_pos_site_id
 _symmetry_equiv_pos_as_xyz
  1  'x, y, z'
loop_
 _atom_site_type_symbol
 _atom_site_label
 _atom_site_symmetry_multiplicity
 _atom_site_fract_x
 _atom_site_fract_y
 _atom_site_fract_z
 _atom_site_occupancy
  Fe  Fe0  1  0.92965782  0.15031238  0.47940358  1
  Fe  Fe1  1  0.83244657  0.09049572  0.64820708  1
  Fe  Fe2  1  0.08366100  0.85003700  0.25310200  1
  Fe  Fe3  1  0.10079018  0.85323584  0.48295633  1
  Mo  Mo4  1  0.23186782  0.53719181  0.34781633  1
  Mo  Mo5  1  0.23424504  0.52643464  0.58665750  1
  Mo  Mo6  1  0.76933832  0.46069237  0.38758622  1
  Mo  Mo7  1  0.77070060  0.44630343  0.62350137  1
  Mo  Mo8  1  0.41173631  0.22813200  0.37738369  1
  Mo  Mo9  1  0.41272077  0.21173218  0.61537462  1
  Mo  Mo10  1  0.59192279  0.77333217  0.35828868  1
  Mo  Mo11  1  0.59258630  0.76014116  0.59601659  1
  Mo  Mo12  1  0.54876300  0.41297700  0.30450800  1
  Mo  Mo13  1  0.55079250  0.40650930  0.54110919  1
  Mo  Mo14  1  0.45118986  0.58670306  0.43225909  1
  Mo  Mo15  1  0.45457975  0.56965013  0.66897130  1
  Se  Se16  1  0.11743849  0.36214087  0.42348993  1
  Se  Se17  1  0.11770823  0.34546413  0.66151029  1
  Se  Se18  1  0.88453700  0.63734700  0.31138600  1
  Se  Se19  1  0.88784127  0.63225057  0.54939646  1
  Se  Se20  1  0.73422351  0.13563033  0.33428017  1
  Se  Se21  1  0.73416274  0.11429813  0.56659438  1
  Se  Se22  1  0.26128406  0.86591167  0.39971909  1
  Se  Se23  1  0.27329884  0.85178947  0.64034833  1
  Se  Se24  1  0.39326800  0.73478000  0.28166600  1
  Se  Se25  1  0.38820910  0.72216538  0.51972133  1
  Se  Se26  1  0.60917538  0.26422432  0.45438292  1
  Se  Se27  1  0.60681985  0.26186902  0.69604793  1
  Se  Se28  1  0.21444700  0.18780600  0.29890600  1
  Se  Se29  1  0.21583345  0.18155374  0.53588667  1
  Se  Se30  1  0.78497166  0.81003594  0.43768472  1
  Se  Se31  1  0.80002308  0.76954698  0.67837855  1
  N  N32  1  0.41197472  0.63929750  0.74727066  1
  H  H33  1  0.54751741  0.67564968  0.76524325  1
  H  H34  1  0.32914138  0.75670178  0.75593059  1
  H  H35  1  0.34197284  0.51543215  0.76219303  1
