# generated using pymatgen
data_FeMo6S8N
_symmetry_space_group_name_H-M   'P 1'
_cell_length_a   6.45357383
_cell_length_b   6.40729292
_cell_length_c   27.84326400
_cell_angle_alpha   93.27559587
_cell_angle_beta   96.42128096
_cell_angle_gamma   96.53695481
_symmetry_Int_Tables_number   1
_chemical_formula_structural   FeMo6S8N
_chemical_formula_sum   'Fe2 Mo12 S16 N2'
_cell_volume   1133.80606000
_cell_formula_units_Z   2
loop_
 _symmetry_equiv_pos_site_id
 _symmetry_equiv_pos_as_xyz
  1  'x, y, z'
loop_
 _atom_site_type_symbol
 _atom_site_label
 _atom_site_symmetry_multiplicity
 _atom_site_fract_x
 _atom_site_fract_y
 _atom_site_fract_z
 _atom_site_occupancy
  Fe  Fe0  1  0.94032903  0.15194625  0.45961853  1
  Fe  Fe1  1  0.84752724  0.10158362  0.64500111  1
  Mo  Mo2  1  0.21324400  0.54241800  0.34209900  1
  Mo  Mo3  1  0.21067290  0.54278987  0.57435217  1
  Mo  Mo4  1  0.79582078  0.45749713  0.38849211  1
  Mo  Mo5  1  0.77382238  0.46047694  0.61680654  1
  Mo  Mo6  1  0.41061516  0.21936095  0.37441247  1
  Mo  Mo7  1  0.40196605  0.21397057  0.60584551  1
  Mo  Mo8  1  0.59439000  0.78338100  0.35611600  1
  Mo  Mo9  1  0.58306702  0.78091158  0.58674985  1
  Mo  Mo10  1  0.53839000  0.41017300  0.30039200  1
  Mo  Mo11  1  0.53337460  0.41681693  0.53054835  1
  Mo  Mo12  1  0.46348352  0.60024511  0.43200197  1
  Mo  Mo13  1  0.45651159  0.58093781  0.65974298  1
  S  S14  1  0.14307857  0.36556043  0.41672960  1
  S  S15  1  0.12694177  0.35818984  0.64830688  1
  S  S16  1  0.86398200  0.63520500  0.31550800  1
  S  S17  1  0.86029235  0.64554997  0.54551396  1
  S  S18  1  0.72141400  0.13929400  0.33709200  1
  S  S19  1  0.71379755  0.13243004  0.56426812  1
  S  S20  1  0.27834955  0.86259590  0.39330689  1
  S  S21  1  0.27238415  0.85891204  0.62837433  1
  S  S22  1  0.37280800  0.72589200  0.28016400  1
  S  S23  1  0.36210950  0.72814695  0.51076648  1
  S  S24  1  0.62417784  0.27540873  0.45201890  1
  S  S25  1  0.61673826  0.27447438  0.68531277  1
  S  S26  1  0.19164500  0.20201400  0.29537700  1
  S  S27  1  0.18606823  0.20731907  0.52623349  1
  S  S28  1  0.81425458  0.80397762  0.43568412  1
  S  S29  1  0.79957153  0.77714773  0.66964824  1
  N  N30  1  0.02038219  0.13690054  0.75781751  1
  N  N31  1  0.91830291  0.11522202  0.78701086  1
