# generated using pymatgen
data_Fe2Mo12HS16
_symmetry_space_group_name_H-M   'P 1'
_cell_length_a   6.45357383
_cell_length_b   6.40729292
_cell_length_c   27.84326400
_cell_angle_alpha   93.27559587
_cell_angle_beta   96.42128096
_cell_angle_gamma   96.53695481
_symmetry_Int_Tables_number   1
_chemical_formula_structural   Fe2Mo12HS16
_chemical_formula_sum   'Fe2 Mo12 H1 S16'
_cell_volume   1133.80606000
_cell_formula_units_Z   1
loop_
 _symmetry_equiv_pos_site_id
 _symmetry_equiv_pos_as_xyz
  1  'x, y, z'
loop_
 _atom_site_type_symbol
 _atom_site_label
 _atom_site_symmetry_multiplicity
 _atom_site_fract_x
 _atom_site_fract_y
 _atom_site_fract_z
 _atom_site_occupancy
  Fe  Fe0  1  0.94059249  0.15140734  0.46035347  1
  Fe  Fe1  1  0.86360360  0.09988228  0.64443531  1
  Mo  Mo2  1  0.21324400  0.54241800  0.34209900  1
  Mo  Mo3  1  0.21631482  0.53974264  0.57526431  1
  Mo  Mo4  1  0.79399069  0.45793300  0.38839890  1
  Mo  Mo5  1  0.78693149  0.45730176  0.61720685  1
  Mo  Mo6  1  0.41032821  0.21867454  0.37458606  1
  Mo  Mo7  1  0.41231492  0.20715905  0.60666646  1
  Mo  Mo8  1  0.59439000  0.78338100  0.35611600  1
  Mo  Mo9  1  0.59227389  0.78134094  0.58713690  1
  Mo  Mo10  1  0.53839000  0.41017300  0.30039200  1
  Mo  Mo11  1  0.53871596  0.41372224  0.53136239  1
  Mo  Mo12  1  0.46273038  0.59967898  0.43227573  1
  Mo  Mo13  1  0.46936912  0.57929502  0.66238336  1
  S  S14  1  0.14241588  0.36470878  0.41703907  1
  S  S15  1  0.14016018  0.35541291  0.64924688  1
  S  S16  1  0.86398200  0.63520500  0.31550800  1
  S  S17  1  0.86675454  0.64154782  0.54579863  1
  S  S18  1  0.72141400  0.13929400  0.33709200  1
  S  S19  1  0.72177563  0.13011918  0.56435578  1
  S  S20  1  0.27831220  0.86167098  0.39368777  1
  S  S21  1  0.28496910  0.85453528  0.62945885  1
  S  S22  1  0.37280800  0.72589200  0.28016400  1
  S  S23  1  0.36801632  0.72502174  0.51171243  1
  S  S24  1  0.62318086  0.27455627  0.45210284  1
  S  S25  1  0.63306125  0.26858339  0.68580535  1
  S  S26  1  0.19164500  0.20201400  0.29537700  1
  S  S27  1  0.19144830  0.20399643  0.52702089  1
  S  S28  1  0.81230769  0.80401112  0.43581054  1
  S  S29  1  0.81375368  0.77706285  0.66931287  1
  H  H30  1  0.44499481  0.64891113  0.72385890  1
