# generated using pymatgen
data_Pd27O
_symmetry_space_group_name_H-M   'P 1'
_cell_length_a   8.25688963
_cell_length_b   8.25682385
_cell_length_c   22.52889700
_cell_angle_alpha   86.49742100
_cell_angle_beta   86.49797035
_cell_angle_gamma   59.99972739
_symmetry_Int_Tables_number   1
_chemical_formula_structural   Pd27O
_chemical_formula_sum   'Pd27 O1'
_cell_volume   1326.83127031
_cell_formula_units_Z   1
loop_
 _symmetry_equiv_pos_site_id
 _symmetry_equiv_pos_as_xyz
  1  'x, y, z'
loop_
 _atom_site_type_symbol
 _atom_site_label
 _atom_site_symmetry_multiplicity
 _atom_site_fract_x
 _atom_site_fract_y
 _atom_site_fract_z
 _atom_site_occupancy
  Pd  Pd0  1  0.06666700  0.06666600  0.40000000  1
  Pd  Pd1  1  0.06666700  0.39999900  0.40000000  1
  Pd  Pd2  1  0.06666700  0.73333300  0.40000000  1
  Pd  Pd3  1  0.40000000  0.06666600  0.40000000  1
  Pd  Pd4  1  0.40000000  0.39999900  0.40000000  1
  Pd  Pd5  1  0.40000000  0.73333300  0.40000000  1
  Pd  Pd6  1  0.73333300  0.06666600  0.40000000  1
  Pd  Pd7  1  0.73333300  0.39999900  0.40000000  1
  Pd  Pd8  1  0.73333300  0.73333300  0.40000000  1
  Pd  Pd9  1  0.16456378  0.16455934  0.50046352  1
  Pd  Pd10  1  0.16382920  0.49726760  0.50251124  1
  Pd  Pd11  1  0.16467182  0.83025524  0.50044767  1
  Pd  Pd12  1  0.49727142  0.16382547  0.50251136  1
  Pd  Pd13  1  0.49722120  0.49721698  0.50256162  1
  Pd  Pd14  1  0.49816646  0.83056602  0.50026784  1
  Pd  Pd15  1  0.83025962  0.16466736  0.50044758  1
  Pd  Pd16  1  0.83057029  0.49816222  0.50026770  1
  Pd  Pd17  1  0.83066546  0.83066154  0.50019344  1
  Pd  Pd18  1  0.26182913  0.26182094  0.60253303  1
  Pd  Pd19  1  0.26187866  0.59590315  0.60255089  1
  Pd  Pd20  1  0.25984636  0.93019149  0.60070930  1
  Pd  Pd21  1  0.59591271  0.26186955  0.60255113  1
  Pd  Pd22  1  0.59151857  0.59150956  0.60323153  1
  Pd  Pd23  1  0.59164544  0.93626287  0.60315718  1
  Pd  Pd24  1  0.93020043  0.25983782  0.60070916  1
  Pd  Pd25  1  0.93627025  0.59163770  0.60315722  1
  Pd  Pd26  1  0.93023795  0.93022886  0.60061631  1
  O  O27  1  0.70083225  0.70082029  0.65310529  1
