# generated using pymatgen
data_H3Pd27N
_symmetry_space_group_name_H-M   'P 1'
_cell_length_a   8.25688963
_cell_length_b   8.25682385
_cell_length_c   22.52889700
_cell_angle_alpha   86.49742100
_cell_angle_beta   86.49797035
_cell_angle_gamma   59.99972739
_symmetry_Int_Tables_number   1
_chemical_formula_structural   H3Pd27N
_chemical_formula_sum   'Pd27 H3 N1'
_cell_volume   1326.83127031
_cell_formula_units_Z   1
loop_
 _symmetry_equiv_pos_site_id
 _symmetry_equiv_pos_as_xyz
  1  'x, y, z'
loop_
 _atom_site_type_symbol
 _atom_site_label
 _atom_site_symmetry_multiplicity
 _atom_site_fract_x
 _atom_site_fract_y
 _atom_site_fract_z
 _atom_site_occupancy
  Pd  Pd0  1  0.06666700  0.06666600  0.40000000  1
  Pd  Pd1  1  0.06666700  0.39999900  0.40000000  1
  Pd  Pd2  1  0.06666700  0.73333300  0.40000000  1
  Pd  Pd3  1  0.40000000  0.06666600  0.40000000  1
  Pd  Pd4  1  0.40000000  0.39999900  0.40000000  1
  Pd  Pd5  1  0.40000000  0.73333300  0.40000000  1
  Pd  Pd6  1  0.73333300  0.06666600  0.40000000  1
  Pd  Pd7  1  0.73333300  0.39999900  0.40000000  1
  Pd  Pd8  1  0.73333300  0.73333300  0.40000000  1
  Pd  Pd9  1  0.16678322  0.16697157  0.50138537  1
  Pd  Pd10  1  0.16703499  0.49965425  0.50137812  1
  Pd  Pd11  1  0.16626236  0.83347700  0.50152198  1
  Pd  Pd12  1  0.49964110  0.16696524  0.50138630  1
  Pd  Pd13  1  0.50067544  0.50075703  0.50295145  1
  Pd  Pd14  1  0.50065954  0.83166615  0.50272880  1
  Pd  Pd15  1  0.83352961  0.16629262  0.50154237  1
  Pd  Pd16  1  0.83160112  0.50060924  0.50277413  1
  Pd  Pd17  1  0.83351864  0.83360604  0.50146252  1
  Pd  Pd18  1  0.26652939  0.26656679  0.60371935  1
  Pd  Pd19  1  0.26512030  0.59987416  0.60314839  1
  Pd  Pd20  1  0.26496972  0.93503492  0.60281505  1
  Pd  Pd21  1  0.59984843  0.26509004  0.60302888  1
  Pd  Pd22  1  0.59941673  0.59953082  0.60858725  1
  Pd  Pd23  1  0.59985122  0.93505814  0.60287326  1
  Pd  Pd24  1  0.93482042  0.26512119  0.60303956  1
  Pd  Pd25  1  0.93516358  0.59987032  0.60273966  1
  Pd  Pd26  1  0.93318482  0.93322243  0.60379798  1
  N  N27  1  0.59130855  0.59392622  0.70301958  1
  H  H28  1  0.68355657  0.63038575  0.71802931  1
  H  H29  1  0.45965766  0.68678329  0.71934495  1
  H  H30  1  0.62691032  0.46280393  0.72037356  1
