# generated using pymatgen
data_HPd27
_symmetry_space_group_name_H-M   'P 1'
_cell_length_a   8.25688963
_cell_length_b   8.25682385
_cell_length_c   22.52889700
_cell_angle_alpha   86.49742100
_cell_angle_beta   86.49797035
_cell_angle_gamma   59.99972739
_symmetry_Int_Tables_number   1
_chemical_formula_structural   HPd27
_chemical_formula_sum   'Pd27 H1'
_cell_volume   1326.83127031
_cell_formula_units_Z   1
loop_
 _symmetry_equiv_pos_site_id
 _symmetry_equiv_pos_as_xyz
  1  'x, y, z'
loop_
 _atom_site_type_symbol
 _atom_site_label
 _atom_site_symmetry_multiplicity
 _atom_site_fract_x
 _atom_site_fract_y
 _atom_site_fract_z
 _atom_site_occupancy
  Pd  Pd0  1  0.06666700  0.06666600  0.40000000  1
  Pd  Pd1  1  0.06666700  0.39999900  0.40000000  1
  Pd  Pd2  1  0.06666700  0.73333300  0.40000000  1
  Pd  Pd3  1  0.40000000  0.06666600  0.40000000  1
  Pd  Pd4  1  0.40000000  0.39999900  0.40000000  1
  Pd  Pd5  1  0.40000000  0.73333300  0.40000000  1
  Pd  Pd6  1  0.73333300  0.06666600  0.40000000  1
  Pd  Pd7  1  0.73333300  0.39999900  0.40000000  1
  Pd  Pd8  1  0.73333300  0.73333300  0.40000000  1
  Pd  Pd9  1  0.16663514  0.16663020  0.50152493  1
  Pd  Pd10  1  0.16625043  0.50019314  0.50192397  1
  Pd  Pd11  1  0.16623505  0.83331680  0.50192246  1
  Pd  Pd12  1  0.50019803  0.16624557  0.50192412  1
  Pd  Pd13  1  0.49990607  0.49990099  0.50200730  1
  Pd  Pd14  1  0.50020438  0.83329912  0.50192134  1
  Pd  Pd15  1  0.83332177  0.16623007  0.50192237  1
  Pd  Pd16  1  0.83330408  0.50019938  0.50192124  1
  Pd  Pd17  1  0.83326690  0.83326187  0.50180447  1
  Pd  Pd18  1  0.26606365  0.26605338  0.60317022  1
  Pd  Pd19  1  0.26341543  0.60112347  0.60499777  1
  Pd  Pd20  1  0.26608357  0.93413559  0.60314986  1
  Pd  Pd21  1  0.60113415  0.26340507  0.60499792  1
  Pd  Pd22  1  0.60116270  0.60115197  0.60500032  1
  Pd  Pd23  1  0.59974185  0.93319858  0.60369110  1
  Pd  Pd24  1  0.93414617  0.26607307  0.60314982  1
  Pd  Pd25  1  0.93320889  0.59973149  0.60369107  1
  Pd  Pd26  1  0.93319814  0.93318786  0.60370491  1
  H  H27  1  0.48458573  0.48457640  0.64130327  1
