# generated using pymatgen
data_Mo12HSe16
_symmetry_space_group_name_H-M   'P 1'
_cell_length_a   6.61417350
_cell_length_b   6.61583473
_cell_length_c   28.23028900
_cell_angle_alpha   91.53841057
_cell_angle_beta   91.51120564
_cell_angle_gamma   91.52367391
_symmetry_Int_Tables_number   1
_chemical_formula_structural   Mo12HSe16
_chemical_formula_sum   'Mo12 H1 Se16'
_cell_volume   1233.97341125
_cell_formula_units_Z   1
loop_
 _symmetry_equiv_pos_site_id
 _symmetry_equiv_pos_as_xyz
  1  'x, y, z'
loop_
 _atom_site_type_symbol
 _atom_site_label
 _atom_site_symmetry_multiplicity
 _atom_site_fract_x
 _atom_site_fract_y
 _atom_site_fract_z
 _atom_site_occupancy
  Mo  Mo0  1  0.22064400  0.54530100  0.34680900  1
  Mo  Mo1  1  0.23242670  0.53665275  0.58531818  1
  Mo  Mo2  1  0.77603297  0.45407828  0.38694911  1
  Mo  Mo3  1  0.77284622  0.43950078  0.62425191  1
  Mo  Mo4  1  0.41472179  0.22645818  0.37785727  1
  Mo  Mo5  1  0.42150671  0.21764369  0.61554691  1
  Mo  Mo6  1  0.57917178  0.77416289  0.35718485  1
  Mo  Mo7  1  0.58777362  0.76256121  0.59430548  1
  Mo  Mo8  1  0.54531000  0.41281400  0.30171000  1
  Mo  Mo9  1  0.55356608  0.40720138  0.53684876  1
  Mo  Mo10  1  0.45398617  0.58494039  0.43401231  1
  Mo  Mo11  1  0.44689889  0.57409927  0.66678696  1
  Se  Se12  1  0.12482033  0.38072603  0.42611760  1
  Se  Se13  1  0.12764898  0.35986350  0.66382527  1
  Se  Se14  1  0.87245300  0.62115500  0.30846200  1
  Se  Se15  1  0.88142256  0.60955466  0.54578311  1
  Se  Se16  1  0.75031900  0.12757300  0.33876000  1
  Se  Se17  1  0.75396405  0.11593066  0.57258467  1
  Se  Se18  1  0.24724171  0.87230020  0.39767080  1
  Se  Se19  1  0.25160440  0.86537462  0.63667605  1
  Se  Se20  1  0.37880700  0.75023000  0.27992500  1
  Se  Se21  1  0.38340315  0.74021977  0.51714328  1
  Se  Se22  1  0.62354387  0.24633087  0.45411105  1
  Se  Se23  1  0.63458268  0.23560437  0.69290260  1
  Se  Se24  1  0.21114700  0.21116100  0.29951300  1
  Se  Se25  1  0.23144025  0.19760946  0.53620453  1
  Se  Se26  1  0.78373384  0.78660270  0.43574687  1
  Se  Se27  1  0.77546405  0.77090782  0.67536767  1
  H  H28  1  0.52736595  0.41896991  0.72198564  1
