# generated using pymatgen
data_HPd27N2
_symmetry_space_group_name_H-M   'P 1'
_cell_length_a   8.25688963
_cell_length_b   8.25682385
_cell_length_c   22.52889700
_cell_angle_alpha   86.49742100
_cell_angle_beta   86.49797035
_cell_angle_gamma   59.99972739
_symmetry_Int_Tables_number   1
_chemical_formula_structural   HPd27N2
_chemical_formula_sum   'Pd27 H1 N2'
_cell_volume   1326.83127031
_cell_formula_units_Z   1
loop_
 _symmetry_equiv_pos_site_id
 _symmetry_equiv_pos_as_xyz
  1  'x, y, z'
loop_
 _atom_site_type_symbol
 _atom_site_label
 _atom_site_symmetry_multiplicity
 _atom_site_fract_x
 _atom_site_fract_y
 _atom_site_fract_z
 _atom_site_occupancy
  Pd  Pd0  1  0.06666700  0.06666600  0.40000000  1
  Pd  Pd1  1  0.06666700  0.39999900  0.40000000  1
  Pd  Pd2  1  0.06666700  0.73333300  0.40000000  1
  Pd  Pd3  1  0.40000000  0.06666600  0.40000000  1
  Pd  Pd4  1  0.40000000  0.39999900  0.40000000  1
  Pd  Pd5  1  0.40000000  0.73333300  0.40000000  1
  Pd  Pd6  1  0.73333300  0.06666600  0.40000000  1
  Pd  Pd7  1  0.73333300  0.39999900  0.40000000  1
  Pd  Pd8  1  0.73333300  0.73333300  0.40000000  1
  Pd  Pd9  1  0.16645127  0.16590962  0.50135676  1
  Pd  Pd10  1  0.16488070  0.49985053  0.50199247  1
  Pd  Pd11  1  0.16611407  0.83266189  0.50161312  1
  Pd  Pd12  1  0.49928756  0.16644126  0.50133388  1
  Pd  Pd13  1  0.50000396  0.50028596  0.50353009  1
  Pd  Pd14  1  0.49985410  0.83147974  0.50252875  1
  Pd  Pd15  1  0.83248245  0.16621903  0.50141576  1
  Pd  Pd16  1  0.83196128  0.49979756  0.50226041  1
  Pd  Pd17  1  0.83276579  0.83202727  0.50185635  1
  Pd  Pd18  1  0.26526539  0.26513795  0.60353231  1
  Pd  Pd19  1  0.26392747  0.59855332  0.60363812  1
  Pd  Pd20  1  0.26375659  0.93254935  0.60299759  1
  Pd  Pd21  1  0.59806217  0.26450929  0.60345974  1
  Pd  Pd22  1  0.59683873  0.59769303  0.60882211  1
  Pd  Pd23  1  0.59744145  0.93499494  0.60299237  1
  Pd  Pd24  1  0.93378299  0.26238668  0.60235602  1
  Pd  Pd25  1  0.93244416  0.59818970  0.60489713  1
  Pd  Pd26  1  0.93207568  0.93169940  0.60326181  1
  N  N27  1  0.66407803  0.60519669  0.68934857  1
  N  N28  1  0.58760001  0.58545188  0.73447001  1
  H  H29  1  0.64588365  0.59409216  0.77343141  1
