# generated using pymatgen
data_Mo12CSe16O
_symmetry_space_group_name_H-M   'P 1'
_cell_length_a   6.61417350
_cell_length_b   6.61583473
_cell_length_c   28.23028900
_cell_angle_alpha   91.53841057
_cell_angle_beta   91.51120564
_cell_angle_gamma   91.52367391
_symmetry_Int_Tables_number   1
_chemical_formula_structural   Mo12CSe16O
_chemical_formula_sum   'Mo12 Se16 C1 O1'
_cell_volume   1233.97341125
_cell_formula_units_Z   1
loop_
 _symmetry_equiv_pos_site_id
 _symmetry_equiv_pos_as_xyz
  1  'x, y, z'
loop_
 _atom_site_type_symbol
 _atom_site_label
 _atom_site_symmetry_multiplicity
 _atom_site_fract_x
 _atom_site_fract_y
 _atom_site_fract_z
 _atom_site_occupancy
  Mo  Mo0  1  0.22064400  0.54530100  0.34680900  1
  Mo  Mo1  1  0.22223678  0.54233831  0.58243579  1
  Mo  Mo2  1  0.77414012  0.45366185  0.38700053  1
  Mo  Mo3  1  0.78075685  0.44449778  0.62205999  1
  Mo  Mo4  1  0.41448140  0.22711611  0.37808078  1
  Mo  Mo5  1  0.42317688  0.20807138  0.61231176  1
  Mo  Mo6  1  0.57796032  0.77541828  0.35702437  1
  Mo  Mo7  1  0.58485244  0.77483094  0.59171400  1
  Mo  Mo8  1  0.54531000  0.41281400  0.30171000  1
  Mo  Mo9  1  0.54410964  0.41289765  0.53763027  1
  Mo  Mo10  1  0.45065625  0.58609982  0.43302969  1
  Mo  Mo11  1  0.45612190  0.56867009  0.66702727  1
  Se  Se12  1  0.12363898  0.37826889  0.42610746  1
  Se  Se13  1  0.12686721  0.36178932  0.65931121  1
  Se  Se14  1  0.87245300  0.62115500  0.30846200  1
  Se  Se15  1  0.87364510  0.62051024  0.54400675  1
  Se  Se16  1  0.75031900  0.12757300  0.33876000  1
  Se  Se17  1  0.75269066  0.12099416  0.57117336  1
  Se  Se18  1  0.24481221  0.87341367  0.39672508  1
  Se  Se19  1  0.25564778  0.86369392  0.63484531  1
  Se  Se20  1  0.37880700  0.75023000  0.27992500  1
  Se  Se21  1  0.37536752  0.74996086  0.51533506  1
  Se  Se22  1  0.62124466  0.25061088  0.45499124  1
  Se  Se23  1  0.62441017  0.23774328  0.68917104  1
  Se  Se24  1  0.21114700  0.21116100  0.29951300  1
  Se  Se25  1  0.20942238  0.20547912  0.53599527  1
  Se  Se26  1  0.78390662  0.78592904  0.43526660  1
  Se  Se27  1  0.78529010  0.78110455  0.66913026  1
  O  O28  1  0.43479961  0.61838733  0.77961649  1
  C  C29  1  0.43979463  0.60916264  0.73856144  1
