# generated using pymatgen
data_FeMo6S8N
_symmetry_space_group_name_H-M   'P 1'
_cell_length_a   6.45357383
_cell_length_b   6.40729292
_cell_length_c   27.84326400
_cell_angle_alpha   93.27559587
_cell_angle_beta   96.42128096
_cell_angle_gamma   96.53695481
_symmetry_Int_Tables_number   1
_chemical_formula_structural   FeMo6S8N
_chemical_formula_sum   'Fe2 Mo12 S16 N2'
_cell_volume   1133.80606000
_cell_formula_units_Z   2
loop_
 _symmetry_equiv_pos_site_id
 _symmetry_equiv_pos_as_xyz
  1  'x, y, z'
loop_
 _atom_site_type_symbol
 _atom_site_label
 _atom_site_symmetry_multiplicity
 _atom_site_fract_x
 _atom_site_fract_y
 _atom_site_fract_z
 _atom_site_occupancy
  Fe  Fe0  1  0.93806971  0.15331141  0.45945141  1
  Fe  Fe1  1  0.90363520  0.13360608  0.68083613  1
  Mo  Mo2  1  0.21324400  0.54241800  0.34209900  1
  Mo  Mo3  1  0.20443384  0.54259367  0.57337505  1
  Mo  Mo4  1  0.79533679  0.45806723  0.38837465  1
  Mo  Mo5  1  0.77722332  0.44812197  0.61728978  1
  Mo  Mo6  1  0.40979493  0.21848752  0.37432669  1
  Mo  Mo7  1  0.39569070  0.21593899  0.60545363  1
  Mo  Mo8  1  0.59439000  0.78338100  0.35611600  1
  Mo  Mo9  1  0.58334786  0.77842034  0.58671572  1
  Mo  Mo10  1  0.53839000  0.41017300  0.30039200  1
  Mo  Mo11  1  0.53109726  0.41032562  0.52994403  1
  Mo  Mo12  1  0.46197740  0.60001290  0.43240195  1
  Mo  Mo13  1  0.45726231  0.58729533  0.65988570  1
  S  S14  1  0.14239334  0.36450937  0.41667467  1
  S  S15  1  0.12993854  0.36495807  0.64941868  1
  S  S16  1  0.86398200  0.63520500  0.31550800  1
  S  S17  1  0.85627882  0.63633789  0.54591071  1
  S  S18  1  0.72141400  0.13929400  0.33709200  1
  S  S19  1  0.70823979  0.13348065  0.56590539  1
  S  S20  1  0.27801167  0.86190949  0.39322839  1
  S  S21  1  0.27123362  0.85986519  0.62725538  1
  S  S22  1  0.37280800  0.72589200  0.28016400  1
  S  S23  1  0.36272765  0.72540929  0.51092432  1
  S  S24  1  0.62262596  0.27478677  0.45159604  1
  S  S25  1  0.60538691  0.27565544  0.68346322  1
  S  S26  1  0.19164500  0.20201400  0.29537700  1
  S  S27  1  0.18280063  0.20549996  0.52555866  1
  S  S28  1  0.81295323  0.80423523  0.43595904  1
  S  S29  1  0.80228939  0.78310889  0.66630355  1
  N  N30  1  0.97316750  0.14110912  0.74734133  1
  N  N31  1  0.96700841  0.13520587  0.78758781  1
