# generated using pymatgen
data_HPd27
_symmetry_space_group_name_H-M   'P 1'
_cell_length_a   8.25688963
_cell_length_b   8.25682385
_cell_length_c   22.52889700
_cell_angle_alpha   86.49742100
_cell_angle_beta   86.49797035
_cell_angle_gamma   59.99972739
_symmetry_Int_Tables_number   1
_chemical_formula_structural   HPd27
_chemical_formula_sum   'Pd27 H1'
_cell_volume   1326.83127031
_cell_formula_units_Z   1
loop_
 _symmetry_equiv_pos_site_id
 _symmetry_equiv_pos_as_xyz
  1  'x, y, z'
loop_
 _atom_site_type_symbol
 _atom_site_label
 _atom_site_symmetry_multiplicity
 _atom_site_fract_x
 _atom_site_fract_y
 _atom_site_fract_z
 _atom_site_occupancy
  Pd  Pd0  1  0.06666700  0.06666600  0.40000000  1
  Pd  Pd1  1  0.06666700  0.39999900  0.40000000  1
  Pd  Pd2  1  0.06666700  0.73333300  0.40000000  1
  Pd  Pd3  1  0.40000000  0.06666600  0.40000000  1
  Pd  Pd4  1  0.40000000  0.39999900  0.40000000  1
  Pd  Pd5  1  0.40000000  0.73333300  0.40000000  1
  Pd  Pd6  1  0.73333300  0.06666600  0.40000000  1
  Pd  Pd7  1  0.73333300  0.39999900  0.40000000  1
  Pd  Pd8  1  0.73333300  0.73333300  0.40000000  1
  Pd  Pd9  1  0.16649603  0.16649245  0.50185156  1
  Pd  Pd10  1  0.16653742  0.49991960  0.50184135  1
  Pd  Pd11  1  0.16656566  0.83319693  0.50166397  1
  Pd  Pd12  1  0.49992302  0.16653385  0.50184148  1
  Pd  Pd13  1  0.50010663  0.50010293  0.50229510  1
  Pd  Pd14  1  0.50000993  0.83275668  0.50209366  1
  Pd  Pd15  1  0.83320044  0.16656222  0.50166399  1
  Pd  Pd16  1  0.83276012  0.50000637  0.50209351  1
  Pd  Pd17  1  0.83323144  0.83322787  0.50165414  1
  Pd  Pd18  1  0.26638043  0.26637241  0.60353528  1
  Pd  Pd19  1  0.26593357  0.59963158  0.60345617  1
  Pd  Pd20  1  0.26592810  0.93359948  0.60343994  1
  Pd  Pd21  1  0.59963946  0.26592589  0.60345629  1
  Pd  Pd22  1  0.59952171  0.59951406  0.60637653  1
  Pd  Pd23  1  0.59958225  0.93370338  0.60342549  1
  Pd  Pd24  1  0.93360722  0.26592050  0.60343997  1
  Pd  Pd25  1  0.93371130  0.59957434  0.60342536  1
  Pd  Pd26  1  0.93308276  0.93307503  0.60333527  1
  H  H27  1  0.59857550  0.59856993  0.67520032  1
