# generated using pymatgen
data_Ag26PtO
_symmetry_space_group_name_H-M   'P 1'
_cell_length_a   8.60496519
_cell_length_b   8.60496881
_cell_length_c   23.47925300
_cell_angle_alpha   90.00483404
_cell_angle_beta   93.49762144
_cell_angle_gamma   119.99565775
_symmetry_Int_Tables_number   1
_chemical_formula_structural   Ag26PtO
_chemical_formula_sum   'Ag26 Pt1 O1'
_cell_volume   1501.93330901
_cell_formula_units_Z   1
loop_
 _symmetry_equiv_pos_site_id
 _symmetry_equiv_pos_as_xyz
  1  'x, y, z'
loop_
 _atom_site_type_symbol
 _atom_site_label
 _atom_site_symmetry_multiplicity
 _atom_site_fract_x
 _atom_site_fract_y
 _atom_site_fract_z
 _atom_site_occupancy
  Ag  Ag0  1  0.20000000  0.26666700  0.40000000  1
  Ag  Ag1  1  0.20000000  0.60000000  0.40000000  1
  Ag  Ag2  1  0.20000000  0.93333300  0.40000000  1
  Ag  Ag3  1  0.53333300  0.26666700  0.40000000  1
  Ag  Ag4  1  0.53333300  0.60000000  0.40000000  1
  Ag  Ag5  1  0.53333300  0.93333300  0.40000000  1
  Ag  Ag6  1  0.86666700  0.26666700  0.40000000  1
  Ag  Ag7  1  0.86666700  0.60000000  0.40000000  1
  Ag  Ag8  1  0.86666700  0.93333300  0.40000000  1
  Ag  Ag9  1  0.33387140  0.16680492  0.50169916  1
  Ag  Ag10  1  0.33341884  0.50739500  0.50144928  1
  Ag  Ag11  1  0.33673479  0.83860939  0.50536482  1
  Ag  Ag12  1  0.66614973  0.16950137  0.50342419  1
  Ag  Ag13  1  0.66911826  0.50468812  0.49989220  1
  Ag  Ag14  1  0.66603082  0.83724144  0.50352671  1
  Ag  Ag15  1  0.99927341  0.16984669  0.50216239  1
  Ag  Ag16  1  0.00328277  0.50717106  0.50377539  1
  Ag  Ag17  1  0.00330822  0.83689318  0.50385980  1
  Ag  Ag18  1  0.13813106  0.07848654  0.60409548  1
  Ag  Ag19  1  0.13815619  0.40416161  0.60404846  1
  Ag  Ag20  1  0.12957707  0.73731847  0.60720646  1
  Ag  Ag21  1  0.47393068  0.09249207  0.61042203  1
  Ag  Ag22  1  0.47348929  0.72681056  0.61082548  1
  Ag  Ag23  1  0.80369747  0.07418275  0.60369282  1
  Ag  Ag24  1  0.80210215  0.40795367  0.60400530  1
  Ag  Ag25  1  0.80199633  0.73880847  0.60412314  1
  Pt  Pt26  1  0.47235254  0.40872442  0.59419370  1
  O  O27  1  0.37788934  0.86209943  0.66485885  1
