# generated using pymatgen
data_Mo12HSe16
_symmetry_space_group_name_H-M   'P 1'
_cell_length_a   6.61417350
_cell_length_b   6.61583473
_cell_length_c   28.23028900
_cell_angle_alpha   91.53841057
_cell_angle_beta   91.51120564
_cell_angle_gamma   91.52367391
_symmetry_Int_Tables_number   1
_chemical_formula_structural   Mo12HSe16
_chemical_formula_sum   'Mo12 H1 Se16'
_cell_volume   1233.97341125
_cell_formula_units_Z   1
loop_
 _symmetry_equiv_pos_site_id
 _symmetry_equiv_pos_as_xyz
  1  'x, y, z'
loop_
 _atom_site_type_symbol
 _atom_site_label
 _atom_site_symmetry_multiplicity
 _atom_site_fract_x
 _atom_site_fract_y
 _atom_site_fract_z
 _atom_site_occupancy
  Mo  Mo0  1  0.22064400  0.54530100  0.34680900  1
  Mo  Mo1  1  0.23289840  0.53682891  0.58520501  1
  Mo  Mo2  1  0.77459660  0.45355924  0.38696839  1
  Mo  Mo3  1  0.77242505  0.43962856  0.62436540  1
  Mo  Mo4  1  0.41437442  0.22660491  0.37792704  1
  Mo  Mo5  1  0.42096074  0.21732656  0.61562434  1
  Mo  Mo6  1  0.57923659  0.77401478  0.35721493  1
  Mo  Mo7  1  0.58796634  0.76250221  0.59424380  1
  Mo  Mo8  1  0.54531000  0.41281400  0.30171000  1
  Mo  Mo9  1  0.55302371  0.40683409  0.53702246  1
  Mo  Mo10  1  0.45340642  0.58470347  0.43402295  1
  Mo  Mo11  1  0.44621717  0.57365553  0.66664460  1
  Se  Se12  1  0.12392571  0.38032571  0.42615942  1
  Se  Se13  1  0.12713472  0.35926176  0.66376787  1
  Se  Se14  1  0.87245300  0.62115500  0.30846200  1
  Se  Se15  1  0.88114353  0.60935792  0.54585425  1
  Se  Se16  1  0.75031900  0.12757300  0.33876000  1
  Se  Se17  1  0.75394308  0.11627493  0.57290767  1
  Se  Se18  1  0.24676774  0.87186467  0.39750083  1
  Se  Se19  1  0.25164994  0.86463123  0.63653193  1
  Se  Se20  1  0.37880700  0.75023000  0.27992500  1
  Se  Se21  1  0.38353152  0.74062956  0.51699913  1
  Se  Se22  1  0.62280586  0.24610201  0.45436092  1
  Se  Se23  1  0.63309719  0.23583708  0.69295152  1
  Se  Se24  1  0.21114700  0.21116100  0.29951300  1
  Se  Se25  1  0.23029099  0.19754383  0.53644224  1
  Se  Se26  1  0.78332881  0.78635119  0.43568098  1
  Se  Se27  1  0.77451106  0.77148086  0.67535575  1
  H  H28  1  0.52562601  0.42196533  0.72184202  1
