# generated using pymatgen
data_HPd27CO
_symmetry_space_group_name_H-M   'P 1'
_cell_length_a   8.25688963
_cell_length_b   8.25682385
_cell_length_c   22.52889700
_cell_angle_alpha   86.49742100
_cell_angle_beta   86.49797035
_cell_angle_gamma   59.99972739
_symmetry_Int_Tables_number   1
_chemical_formula_structural   HPd27CO
_chemical_formula_sum   'Pd27 H1 C1 O1'
_cell_volume   1326.83127031
_cell_formula_units_Z   1
loop_
 _symmetry_equiv_pos_site_id
 _symmetry_equiv_pos_as_xyz
  1  'x, y, z'
loop_
 _atom_site_type_symbol
 _atom_site_label
 _atom_site_symmetry_multiplicity
 _atom_site_fract_x
 _atom_site_fract_y
 _atom_site_fract_z
 _atom_site_occupancy
  Pd  Pd0  1  0.06666700  0.06666600  0.40000000  1
  Pd  Pd1  1  0.06666700  0.39999900  0.40000000  1
  Pd  Pd2  1  0.06666700  0.73333300  0.40000000  1
  Pd  Pd3  1  0.40000000  0.06666600  0.40000000  1
  Pd  Pd4  1  0.40000000  0.39999900  0.40000000  1
  Pd  Pd5  1  0.40000000  0.73333300  0.40000000  1
  Pd  Pd6  1  0.73333300  0.06666600  0.40000000  1
  Pd  Pd7  1  0.73333300  0.39999900  0.40000000  1
  Pd  Pd8  1  0.73333300  0.73333300  0.40000000  1
  Pd  Pd9  1  0.16877843  0.16968418  0.50073444  1
  Pd  Pd10  1  0.16839442  0.50351686  0.50208196  1
  Pd  Pd11  1  0.16843149  0.83587515  0.50231059  1
  Pd  Pd12  1  0.50252094  0.16950705  0.50215069  1
  Pd  Pd13  1  0.50192962  0.50288067  0.50181485  1
  Pd  Pd14  1  0.50248539  0.83626413  0.50207206  1
  Pd  Pd15  1  0.83477934  0.16950975  0.50229382  1
  Pd  Pd16  1  0.83527167  0.50350326  0.50199878  1
  Pd  Pd17  1  0.83535341  0.83640343  0.50177282  1
  Pd  Pd18  1  0.26895586  0.27083319  0.60232673  1
  Pd  Pd19  1  0.26834945  0.60542466  0.60722272  1
  Pd  Pd20  1  0.26910306  0.94115146  0.60230934  1
  Pd  Pd21  1  0.60352887  0.27061469  0.60747390  1
  Pd  Pd22  1  0.60499800  0.60673939  0.60630766  1
  Pd  Pd23  1  0.60366672  0.93931834  0.60359255  1
  Pd  Pd24  1  0.93945603  0.27091214  0.60222971  1
  Pd  Pd25  1  0.93729666  0.60551080  0.60356204  1
  Pd  Pd26  1  0.93647151  0.93866931  0.60370177  1
  C  C27  1  0.48781176  0.49220193  0.65890500  1
  H  H28  1  0.55329521  0.52188211  0.73773383  1
  O  O29  1  0.47487296  0.48334911  0.71724438  1
