# generated using pymatgen
data_H3Pd27N
_symmetry_space_group_name_H-M   'P 1'
_cell_length_a   8.25688963
_cell_length_b   8.25682385
_cell_length_c   22.52889700
_cell_angle_alpha   86.49742100
_cell_angle_beta   86.49797035
_cell_angle_gamma   59.99972739
_symmetry_Int_Tables_number   1
_chemical_formula_structural   H3Pd27N
_chemical_formula_sum   'Pd27 H3 N1'
_cell_volume   1326.83127031
_cell_formula_units_Z   1
loop_
 _symmetry_equiv_pos_site_id
 _symmetry_equiv_pos_as_xyz
  1  'x, y, z'
loop_
 _atom_site_type_symbol
 _atom_site_label
 _atom_site_symmetry_multiplicity
 _atom_site_fract_x
 _atom_site_fract_y
 _atom_site_fract_z
 _atom_site_occupancy
  Pd  Pd0  1  0.06666700  0.06666600  0.40000000  1
  Pd  Pd1  1  0.06666700  0.39999900  0.40000000  1
  Pd  Pd2  1  0.06666700  0.73333300  0.40000000  1
  Pd  Pd3  1  0.40000000  0.06666600  0.40000000  1
  Pd  Pd4  1  0.40000000  0.39999900  0.40000000  1
  Pd  Pd5  1  0.40000000  0.73333300  0.40000000  1
  Pd  Pd6  1  0.73333300  0.06666600  0.40000000  1
  Pd  Pd7  1  0.73333300  0.39999900  0.40000000  1
  Pd  Pd8  1  0.73333300  0.73333300  0.40000000  1
  Pd  Pd9  1  0.16680503  0.16701134  0.50089585  1
  Pd  Pd10  1  0.16708230  0.49993669  0.50088791  1
  Pd  Pd11  1  0.16661312  0.83348406  0.50102934  1
  Pd  Pd12  1  0.49991986  0.16701211  0.50090476  1
  Pd  Pd13  1  0.50066322  0.50072650  0.50249829  1
  Pd  Pd14  1  0.50061559  0.83208375  0.50229514  1
  Pd  Pd15  1  0.83351586  0.16665478  0.50104194  1
  Pd  Pd16  1  0.83200039  0.50059600  0.50234469  1
  Pd  Pd17  1  0.83351798  0.83359603  0.50097606  1
  Pd  Pd18  1  0.26679037  0.26685727  0.60253092  1
  Pd  Pd19  1  0.26558286  0.60021375  0.60222559  1
  Pd  Pd20  1  0.26537384  0.93507242  0.60193437  1
  Pd  Pd21  1  0.60016697  0.26561311  0.60213243  1
  Pd  Pd22  1  0.59969556  0.59993127  0.60762814  1
  Pd  Pd23  1  0.60016101  0.93513078  0.60199604  1
  Pd  Pd24  1  0.93479874  0.26559445  0.60213564  1
  Pd  Pd25  1  0.93518058  0.60021946  0.60187537  1
  Pd  Pd26  1  0.93343922  0.93351228  0.60266235  1
  N  N27  1  0.59137017  0.59422737  0.70094372  1
  H  H28  1  0.68389702  0.62966463  0.71638670  1
  H  H29  1  0.45988223  0.68730880  0.71743324  1
  H  H30  1  0.62611131  0.46314118  0.71832100  1
