# generated using pymatgen
data_Fe4Mo12HSe16
_symmetry_space_group_name_H-M   'P 1'
_cell_length_a   6.73059675
_cell_length_b   6.68252955
_cell_length_c   28.41042900
_cell_angle_alpha   94.71078376
_cell_angle_beta   91.18717718
_cell_angle_gamma   96.76332947
_symmetry_Int_Tables_number   1
_chemical_formula_structural   Fe4Mo12HSe16
_chemical_formula_sum   'Fe4 Mo12 H1 Se16'
_cell_volume   1264.05235895
_cell_formula_units_Z   1
loop_
 _symmetry_equiv_pos_site_id
 _symmetry_equiv_pos_as_xyz
  1  'x, y, z'
loop_
 _atom_site_type_symbol
 _atom_site_label
 _atom_site_symmetry_multiplicity
 _atom_site_fract_x
 _atom_site_fract_y
 _atom_site_fract_z
 _atom_site_occupancy
  Fe  Fe0  1  0.92657417  0.15014271  0.47989566  1
  Fe  Fe1  1  0.82338341  0.10370980  0.64993469  1
  Fe  Fe2  1  0.08366100  0.85003700  0.25310200  1
  Fe  Fe3  1  0.09594891  0.85280628  0.48428490  1
  Mo  Mo4  1  0.23133623  0.53731157  0.34775279  1
  Mo  Mo5  1  0.22918976  0.53317088  0.58617124  1
  Mo  Mo6  1  0.76856460  0.46098027  0.38769029  1
  Mo  Mo7  1  0.76875412  0.45568149  0.62392075  1
  Mo  Mo8  1  0.41113263  0.22867785  0.37748910  1
  Mo  Mo9  1  0.41013950  0.21717593  0.61573801  1
  Mo  Mo10  1  0.59132970  0.77363101  0.35823261  1
  Mo  Mo11  1  0.58975330  0.77023952  0.59583463  1
  Mo  Mo12  1  0.54876300  0.41297700  0.30450800  1
  Mo  Mo13  1  0.54767491  0.41304910  0.54155827  1
  Mo  Mo14  1  0.45029847  0.58776573  0.43213389  1
  Mo  Mo15  1  0.44928005  0.58077578  0.66889450  1
  Se  Se16  1  0.11640330  0.36269029  0.42367853  1
  Se  Se17  1  0.11442114  0.35513382  0.66168731  1
  Se  Se18  1  0.88453700  0.63734700  0.31138600  1
  Se  Se19  1  0.88442516  0.63842196  0.54940324  1
  Se  Se20  1  0.73383813  0.13576285  0.33446067  1
  Se  Se21  1  0.73353382  0.12274059  0.56733106  1
  Se  Se22  1  0.26049026  0.86617844  0.39955832  1
  Se  Se23  1  0.26867339  0.85908712  0.63987621  1
  Se  Se24  1  0.39326800  0.73478000  0.28166600  1
  Se  Se25  1  0.38829499  0.72840897  0.51930062  1
  Se  Se26  1  0.60754145  0.26570290  0.45479232  1
  Se  Se27  1  0.59900943  0.27730493  0.69742512  1
  Se  Se28  1  0.21444700  0.18780600  0.29890600  1
  Se  Se29  1  0.21360149  0.18606229  0.53620336  1
  Se  Se30  1  0.78444310  0.81115775  0.43753261  1
  Se  Se31  1  0.79259289  0.78068178  0.67892469  1
  H  H32  1  0.41181480  0.65147164  0.72808632  1
