# generated using pymatgen
data_Mo12HSe16
_symmetry_space_group_name_H-M   'P 1'
_cell_length_a   6.61417350
_cell_length_b   6.61583473
_cell_length_c   28.23028900
_cell_angle_alpha   91.53841057
_cell_angle_beta   91.51120564
_cell_angle_gamma   91.52367391
_symmetry_Int_Tables_number   1
_chemical_formula_structural   Mo12HSe16
_chemical_formula_sum   'Mo12 H1 Se16'
_cell_volume   1233.97341125
_cell_formula_units_Z   1
loop_
 _symmetry_equiv_pos_site_id
 _symmetry_equiv_pos_as_xyz
  1  'x, y, z'
loop_
 _atom_site_type_symbol
 _atom_site_label
 _atom_site_symmetry_multiplicity
 _atom_site_fract_x
 _atom_site_fract_y
 _atom_site_fract_z
 _atom_site_occupancy
  Mo  Mo0  1  0.22064400  0.54530100  0.34680900  1
  Mo  Mo1  1  0.23188397  0.53629738  0.58523709  1
  Mo  Mo2  1  0.77613849  0.45400560  0.38699780  1
  Mo  Mo3  1  0.77267710  0.43887803  0.62434122  1
  Mo  Mo4  1  0.41471399  0.22661854  0.37787165  1
  Mo  Mo5  1  0.42083698  0.21775369  0.61563319  1
  Mo  Mo6  1  0.57919750  0.77450519  0.35714201  1
  Mo  Mo7  1  0.58779817  0.76184285  0.59429920  1
  Mo  Mo8  1  0.54531000  0.41281400  0.30171000  1
  Mo  Mo9  1  0.55302663  0.40619376  0.53680294  1
  Mo  Mo10  1  0.45417175  0.58525941  0.43397867  1
  Mo  Mo11  1  0.44691743  0.57446065  0.66687411  1
  Se  Se12  1  0.12504616  0.38077334  0.42616217  1
  Se  Se13  1  0.12749072  0.36098994  0.66381609  1
  Se  Se14  1  0.87245300  0.62115500  0.30846200  1
  Se  Se15  1  0.88085451  0.60819471  0.54578678  1
  Se  Se16  1  0.75031900  0.12757300  0.33876000  1
  Se  Se17  1  0.75359649  0.11530169  0.57283560  1
  Se  Se18  1  0.24705922  0.87246147  0.39756254  1
  Se  Se19  1  0.25124394  0.86501733  0.63650848  1
  Se  Se20  1  0.37880700  0.75023000  0.27992500  1
  Se  Se21  1  0.38393026  0.73982910  0.51710314  1
  Se  Se22  1  0.62330309  0.24636645  0.45416943  1
  Se  Se23  1  0.63381038  0.23522409  0.69301209  1
  Se  Se24  1  0.21114700  0.21116100  0.29951300  1
  Se  Se25  1  0.23049310  0.19754329  0.53619024  1
  Se  Se26  1  0.78435138  0.78656982  0.43572748  1
  Se  Se27  1  0.77564252  0.77005751  0.67536936  1
  H  H28  1  0.52800326  0.41712228  0.72214956  1
