# generated using pymatgen
data_HPd27O
_symmetry_space_group_name_H-M   'P 1'
_cell_length_a   8.25688963
_cell_length_b   8.25682385
_cell_length_c   22.52889700
_cell_angle_alpha   86.49742100
_cell_angle_beta   86.49797035
_cell_angle_gamma   59.99972739
_symmetry_Int_Tables_number   1
_chemical_formula_structural   HPd27O
_chemical_formula_sum   'Pd27 H1 O1'
_cell_volume   1326.83127031
_cell_formula_units_Z   1
loop_
 _symmetry_equiv_pos_site_id
 _symmetry_equiv_pos_as_xyz
  1  'x, y, z'
loop_
 _atom_site_type_symbol
 _atom_site_label
 _atom_site_symmetry_multiplicity
 _atom_site_fract_x
 _atom_site_fract_y
 _atom_site_fract_z
 _atom_site_occupancy
  Pd  Pd0  1  0.06666700  0.06666600  0.40000000  1
  Pd  Pd1  1  0.06666700  0.39999900  0.40000000  1
  Pd  Pd2  1  0.06666700  0.73333300  0.40000000  1
  Pd  Pd3  1  0.40000000  0.06666600  0.40000000  1
  Pd  Pd4  1  0.40000000  0.39999900  0.40000000  1
  Pd  Pd5  1  0.40000000  0.73333300  0.40000000  1
  Pd  Pd6  1  0.73333300  0.06666600  0.40000000  1
  Pd  Pd7  1  0.73333300  0.39999900  0.40000000  1
  Pd  Pd8  1  0.73333300  0.73333300  0.40000000  1
  Pd  Pd9  1  0.16302629  0.16302075  0.50044774  1
  Pd  Pd10  1  0.16235086  0.49554475  0.50284973  1
  Pd  Pd11  1  0.16313857  0.82875383  0.50046071  1
  Pd  Pd12  1  0.49555036  0.16234515  0.50284982  1
  Pd  Pd13  1  0.49512725  0.49512165  0.50268832  1
  Pd  Pd14  1  0.49659037  0.82940060  0.49965121  1
  Pd  Pd15  1  0.82875951  0.16313292  0.50046066  1
  Pd  Pd16  1  0.82940613  0.49658495  0.49965124  1
  Pd  Pd17  1  0.82939940  0.82939358  0.49983848  1
  Pd  Pd18  1  0.25914641  0.25913496  0.60306155  1
  Pd  Pd19  1  0.25924427  0.59310869  0.60306039  1
  Pd  Pd20  1  0.25792432  0.92727214  0.60045922  1
  Pd  Pd21  1  0.59312008  0.25923289  0.60306049  1
  Pd  Pd22  1  0.58853535  0.58852495  0.60053876  1
  Pd  Pd23  1  0.58855875  0.93506602  0.60156412  1
  Pd  Pd24  1  0.92728275  0.25791392  0.60045921  1
  Pd  Pd25  1  0.93507785  0.58854755  0.60156441  1
  Pd  Pd26  1  0.92724962  0.92723860  0.60059713  1
  O  O27  1  0.69497775  0.69496383  0.66003565  1
  H  H28  1  0.68613943  0.68612964  0.70428093  1
