# generated using pymatgen
data_HPd27CO
_symmetry_space_group_name_H-M   'P 1'
_cell_length_a   8.25688963
_cell_length_b   8.25682385
_cell_length_c   22.52889700
_cell_angle_alpha   86.49742100
_cell_angle_beta   86.49797035
_cell_angle_gamma   59.99972739
_symmetry_Int_Tables_number   1
_chemical_formula_structural   HPd27CO
_chemical_formula_sum   'Pd27 H1 C1 O1'
_cell_volume   1326.83127031
_cell_formula_units_Z   1
loop_
 _symmetry_equiv_pos_site_id
 _symmetry_equiv_pos_as_xyz
  1  'x, y, z'
loop_
 _atom_site_type_symbol
 _atom_site_label
 _atom_site_symmetry_multiplicity
 _atom_site_fract_x
 _atom_site_fract_y
 _atom_site_fract_z
 _atom_site_occupancy
  Pd  Pd0  1  0.06666700  0.06666600  0.40000000  1
  Pd  Pd1  1  0.06666700  0.39999900  0.40000000  1
  Pd  Pd2  1  0.06666700  0.73333300  0.40000000  1
  Pd  Pd3  1  0.40000000  0.06666600  0.40000000  1
  Pd  Pd4  1  0.40000000  0.39999900  0.40000000  1
  Pd  Pd5  1  0.40000000  0.73333300  0.40000000  1
  Pd  Pd6  1  0.73333300  0.06666600  0.40000000  1
  Pd  Pd7  1  0.73333300  0.39999900  0.40000000  1
  Pd  Pd8  1  0.73333300  0.73333300  0.40000000  1
  Pd  Pd9  1  0.16556840  0.16707269  0.50093099  1
  Pd  Pd10  1  0.16332260  0.50144198  0.50229819  1
  Pd  Pd11  1  0.16549133  0.83378925  0.50127126  1
  Pd  Pd12  1  0.49819392  0.16820541  0.50065166  1
  Pd  Pd13  1  0.49894005  0.50114685  0.50263470  1
  Pd  Pd14  1  0.49865247  0.83273638  0.50195670  1
  Pd  Pd15  1  0.83150902  0.16733926  0.50078654  1
  Pd  Pd16  1  0.83111597  0.50088829  0.50150082  1
  Pd  Pd17  1  0.83193359  0.83339676  0.50134773  1
  Pd  Pd18  1  0.26530123  0.26701076  0.60247691  1
  Pd  Pd19  1  0.26527993  0.60128702  0.60291232  1
  Pd  Pd20  1  0.26330136  0.93498895  0.60258245  1
  Pd  Pd21  1  0.59766515  0.26782484  0.60253161  1
  Pd  Pd22  1  0.59898557  0.60148695  0.60789459  1
  Pd  Pd23  1  0.59568737  0.93864046  0.60137206  1
  Pd  Pd24  1  0.93251143  0.26504561  0.60135160  1
  Pd  Pd25  1  0.93348223  0.60035200  0.60450229  1
  Pd  Pd26  1  0.93124575  0.93483266  0.60217076  1
  C  C27  1  0.66311956  0.60382153  0.68878265  1
  H  H28  1  0.55998991  0.60674991  0.72358589  1
  O  O29  1  0.80636608  0.60032601  0.70245216  1
