# generated using pymatgen
data_Mo12C(Se8O)2
_symmetry_space_group_name_H-M   'P 1'
_cell_length_a   6.61417350
_cell_length_b   6.61583473
_cell_length_c   28.23028900
_cell_angle_alpha   91.53841057
_cell_angle_beta   91.51120564
_cell_angle_gamma   91.52367391
_symmetry_Int_Tables_number   1
_chemical_formula_structural   Mo12C(Se8O)2
_chemical_formula_sum   'Mo12 Se16 C1 O2'
_cell_volume   1233.97341125
_cell_formula_units_Z   1
loop_
 _symmetry_equiv_pos_site_id
 _symmetry_equiv_pos_as_xyz
  1  'x, y, z'
loop_
 _atom_site_type_symbol
 _atom_site_label
 _atom_site_symmetry_multiplicity
 _atom_site_fract_x
 _atom_site_fract_y
 _atom_site_fract_z
 _atom_site_occupancy
  Mo  Mo0  1  0.22064400  0.54530100  0.34680900  1
  Mo  Mo1  1  0.23421869  0.55017338  0.58381421  1
  Mo  Mo2  1  0.77435970  0.45399990  0.38681932  1
  Mo  Mo3  1  0.77884123  0.45537355  0.62133422  1
  Mo  Mo4  1  0.41352542  0.22536823  0.37764943  1
  Mo  Mo5  1  0.42653203  0.22852441  0.61336503  1
  Mo  Mo6  1  0.57949002  0.77508910  0.35684762  1
  Mo  Mo7  1  0.59195673  0.77489178  0.59084445  1
  Mo  Mo8  1  0.54531000  0.41281400  0.30171000  1
  Mo  Mo9  1  0.55108849  0.41812678  0.53496813  1
  Mo  Mo10  1  0.45218548  0.58504270  0.43358071  1
  Mo  Mo11  1  0.45729189  0.58949230  0.66950440  1
  Se  Se12  1  0.12358204  0.37936930  0.42606338  1
  Se  Se13  1  0.12921729  0.37761527  0.66114912  1
  Se  Se14  1  0.87245300  0.62115500  0.30846200  1
  Se  Se15  1  0.88184378  0.62131878  0.54259591  1
  Se  Se16  1  0.75031900  0.12757300  0.33876000  1
  Se  Se17  1  0.75394462  0.12851941  0.57006847  1
  Se  Se18  1  0.24608666  0.87230800  0.39686053  1
  Se  Se19  1  0.26035188  0.87702474  0.63447012  1
  Se  Se20  1  0.37880700  0.75023000  0.27992500  1
  Se  Se21  1  0.37966831  0.75187596  0.51485926  1
  Se  Se22  1  0.62152977  0.24791834  0.45383281  1
  Se  Se23  1  0.63251763  0.25872258  0.68980747  1
  Se  Se24  1  0.21114700  0.21116100  0.29951300  1
  Se  Se25  1  0.22583428  0.21071892  0.53510513  1
  Se  Se26  1  0.78265552  0.78847154  0.43491620  1
  Se  Se27  1  0.78497364  0.79469224  0.66957765  1
  C  C28  1  0.42678075  0.53326190  0.75062131  1
  O  O29  1  0.40815516  0.71543113  0.74263168  1
  O  O30  1  0.41870351  0.41448114  0.78237223  1
