# generated using pymatgen
data_Fe2Mo12HS16
_symmetry_space_group_name_H-M   'P 1'
_cell_length_a   6.45357383
_cell_length_b   6.40729292
_cell_length_c   27.84326400
_cell_angle_alpha   93.27559587
_cell_angle_beta   96.42128096
_cell_angle_gamma   96.53695481
_symmetry_Int_Tables_number   1
_chemical_formula_structural   Fe2Mo12HS16
_chemical_formula_sum   'Fe2 Mo12 H1 S16'
_cell_volume   1133.80606000
_cell_formula_units_Z   1
loop_
 _symmetry_equiv_pos_site_id
 _symmetry_equiv_pos_as_xyz
  1  'x, y, z'
loop_
 _atom_site_type_symbol
 _atom_site_label
 _atom_site_symmetry_multiplicity
 _atom_site_fract_x
 _atom_site_fract_y
 _atom_site_fract_z
 _atom_site_occupancy
  Fe  Fe0  1  0.93861527  0.15194233  0.46087879  1
  Fe  Fe1  1  0.88579433  0.10702509  0.65503640  1
  Mo  Mo2  1  0.21324400  0.54241800  0.34209900  1
  Mo  Mo3  1  0.21622563  0.54162154  0.57611061  1
  Mo  Mo4  1  0.79186222  0.45903591  0.38820388  1
  Mo  Mo5  1  0.78448367  0.45438778  0.61801767  1
  Mo  Mo6  1  0.40974174  0.21899236  0.37472777  1
  Mo  Mo7  1  0.40825184  0.21390832  0.60733571  1
  Mo  Mo8  1  0.59439000  0.78338100  0.35611600  1
  Mo  Mo9  1  0.59206074  0.77885576  0.58773454  1
  Mo  Mo10  1  0.53839000  0.41017300  0.30039200  1
  Mo  Mo11  1  0.53786662  0.41330251  0.53171210  1
  Mo  Mo12  1  0.46132503  0.60025090  0.43258532  1
  Mo  Mo13  1  0.47054347  0.58361789  0.66400739  1
  S  S14  1  0.14136454  0.36465328  0.41724439  1
  S  S15  1  0.14195224  0.36638002  0.65071373  1
  S  S16  1  0.86398200  0.63520500  0.31550800  1
  S  S17  1  0.86606463  0.63971092  0.54646398  1
  S  S18  1  0.72141400  0.13929400  0.33709200  1
  S  S19  1  0.71749629  0.13196487  0.56512198  1
  S  S20  1  0.27797960  0.86171902  0.39360018  1
  S  S21  1  0.28603795  0.85769386  0.63001405  1
  S  S22  1  0.37280800  0.72589200  0.28016400  1
  S  S23  1  0.36802737  0.72557061  0.51232240  1
  S  S24  1  0.62161685  0.27502694  0.45209546  1
  S  S25  1  0.62875084  0.26942761  0.68692338  1
  S  S26  1  0.19164500  0.20201400  0.29537700  1
  S  S27  1  0.19146470  0.20674361  0.52741848  1
  S  S28  1  0.81110794  0.80473383  0.43583297  1
  S  S29  1  0.81899965  0.77408132  0.67068016  1
  H  H30  1  0.45250250  0.65040435  0.72850842  1
