# generated using pymatgen
data_FeMo6S8N
_symmetry_space_group_name_H-M   'P 1'
_cell_length_a   6.45357383
_cell_length_b   6.40729292
_cell_length_c   27.84326400
_cell_angle_alpha   93.27559587
_cell_angle_beta   96.42128096
_cell_angle_gamma   96.53695481
_symmetry_Int_Tables_number   1
_chemical_formula_structural   FeMo6S8N
_chemical_formula_sum   'Fe2 Mo12 S16 N2'
_cell_volume   1133.80606000
_cell_formula_units_Z   2
loop_
 _symmetry_equiv_pos_site_id
 _symmetry_equiv_pos_as_xyz
  1  'x, y, z'
loop_
 _atom_site_type_symbol
 _atom_site_label
 _atom_site_symmetry_multiplicity
 _atom_site_fract_x
 _atom_site_fract_y
 _atom_site_fract_z
 _atom_site_occupancy
  Fe  Fe0  1  0.94169342  0.15235817  0.46039553  1
  Fe  Fe1  1  0.88606159  0.10684882  0.65550221  1
  Mo  Mo2  1  0.21324400  0.54241800  0.34209900  1
  Mo  Mo3  1  0.21969451  0.54142381  0.57604230  1
  Mo  Mo4  1  0.79565654  0.45795388  0.38850666  1
  Mo  Mo5  1  0.78475902  0.45376941  0.61791740  1
  Mo  Mo6  1  0.41066529  0.21964001  0.37456752  1
  Mo  Mo7  1  0.40947669  0.21254199  0.60713456  1
  Mo  Mo8  1  0.59439000  0.78338100  0.35611600  1
  Mo  Mo9  1  0.59417198  0.77705344  0.58783450  1
  Mo  Mo10  1  0.53839000  0.41017300  0.30039200  1
  Mo  Mo11  1  0.54009293  0.41252902  0.53156857  1
  Mo  Mo12  1  0.46426130  0.60083872  0.43247284  1
  Mo  Mo13  1  0.47167810  0.58129631  0.66381753  1
  S  S14  1  0.14352517  0.36635745  0.41711890  1
  S  S15  1  0.14211355  0.36458338  0.65034848  1
  S  S16  1  0.86398200  0.63520500  0.31550800  1
  S  S17  1  0.86830924  0.63931335  0.54632679  1
  S  S18  1  0.72141400  0.13929400  0.33709200  1
  S  S19  1  0.71927518  0.13043258  0.56552188  1
  S  S20  1  0.27867537  0.86223663  0.39357743  1
  S  S21  1  0.28691432  0.85686637  0.62979029  1
  S  S22  1  0.37280800  0.72589200  0.28016400  1
  S  S23  1  0.37107263  0.72565628  0.51214011  1
  S  S24  1  0.62458113  0.27499113  0.45210223  1
  S  S25  1  0.62658366  0.26562576  0.68646269  1
  S  S26  1  0.19164500  0.20201400  0.29537700  1
  S  S27  1  0.19146692  0.20667874  0.52726340  1
  S  S28  1  0.81439915  0.80455703  0.43577030  1
  S  S29  1  0.81919707  0.77213799  0.67035927  1
  N  N30  1  0.45922831  0.63943069  0.73998090  1
  N  N31  1  0.46539646  0.64514720  0.78041725  1
