# generated using pymatgen
data_Ag26HPt
_symmetry_space_group_name_H-M   'P 1'
_cell_length_a   8.60496519
_cell_length_b   8.60496881
_cell_length_c   23.47925300
_cell_angle_alpha   90.00483404
_cell_angle_beta   93.49762144
_cell_angle_gamma   119.99565775
_symmetry_Int_Tables_number   1
_chemical_formula_structural   Ag26HPt
_chemical_formula_sum   'Ag26 H1 Pt1'
_cell_volume   1501.93330901
_cell_formula_units_Z   1
loop_
 _symmetry_equiv_pos_site_id
 _symmetry_equiv_pos_as_xyz
  1  'x, y, z'
loop_
 _atom_site_type_symbol
 _atom_site_label
 _atom_site_symmetry_multiplicity
 _atom_site_fract_x
 _atom_site_fract_y
 _atom_site_fract_z
 _atom_site_occupancy
  Ag  Ag0  1  0.20000000  0.26666700  0.40000000  1
  Ag  Ag1  1  0.20000000  0.60000000  0.40000000  1
  Ag  Ag2  1  0.20000000  0.93333300  0.40000000  1
  Ag  Ag3  1  0.53333300  0.26666700  0.40000000  1
  Ag  Ag4  1  0.53333300  0.60000000  0.40000000  1
  Ag  Ag5  1  0.53333300  0.93333300  0.40000000  1
  Ag  Ag6  1  0.86666700  0.26666700  0.40000000  1
  Ag  Ag7  1  0.86666700  0.60000000  0.40000000  1
  Ag  Ag8  1  0.86666700  0.93333300  0.40000000  1
  Ag  Ag9  1  0.33433116  0.16884712  0.50171316  1
  Ag  Ag10  1  0.33419321  0.50696229  0.50145342  1
  Ag  Ag11  1  0.33579481  0.83871763  0.50176095  1
  Ag  Ag12  1  0.66815152  0.17106544  0.50301705  1
  Ag  Ag13  1  0.66944319  0.50552525  0.50047265  1
  Ag  Ag14  1  0.66824868  0.83910465  0.50292038  1
  Ag  Ag15  1  0.00042667  0.17118064  0.50243902  1
  Ag  Ag16  1  0.00328250  0.50706385  0.50375626  1
  Ag  Ag17  1  0.00330897  0.83833164  0.50370057  1
  Ag  Ag18  1  0.13937971  0.07926752  0.60545045  1
  Ag  Ag19  1  0.13952244  0.40629840  0.60540586  1
  Ag  Ag20  1  0.13813043  0.74203656  0.60646503  1
  Ag  Ag21  1  0.47268601  0.08486057  0.60823322  1
  Ag  Ag22  1  0.47240718  0.73339115  0.60782250  1
  Ag  Ag23  1  0.80450819  0.07533990  0.60424705  1
  Ag  Ag24  1  0.80248003  0.40937421  0.60466890  1
  Ag  Ag25  1  0.80283426  0.73927852  0.60464895  1
  Pt  Pt26  1  0.47023754  0.40769810  0.59551976  1
  H  H27  1  0.38169311  0.86389226  0.64219590  1
