# generated using pymatgen
data_Mo12HC6
_symmetry_space_group_name_H-M   'P 1'
_cell_length_a   4.68437300
_cell_length_b   5.20389200
_cell_length_c   30.20378500
_cell_angle_alpha   90.00027525
_cell_angle_beta   89.99949852
_cell_angle_gamma   90.00012111
_symmetry_Int_Tables_number   1
_chemical_formula_structural   Mo12HC6
_chemical_formula_sum   'Mo12 H1 C6'
_cell_volume   736.27679646
_cell_formula_units_Z   1
loop_
 _symmetry_equiv_pos_site_id
 _symmetry_equiv_pos_as_xyz
  1  'x, y, z'
loop_
 _atom_site_type_symbol
 _atom_site_label
 _atom_site_symmetry_multiplicity
 _atom_site_fract_x
 _atom_site_fract_y
 _atom_site_fract_z
 _atom_site_occupancy
  Mo  Mo0  1  0.24640104  0.08364593  0.47406788  1
  Mo  Mo1  1  0.74571300  0.92137600  0.32559700  1
  Mo  Mo2  1  0.25429200  0.57864400  0.32559900  1
  Mo  Mo3  1  0.75933545  0.41373769  0.47402691  1
  Mo  Mo4  1  0.24611327  0.58212531  0.42501659  1
  Mo  Mo5  1  0.74571400  0.42136300  0.37440200  1
  Mo  Mo6  1  0.25428000  0.07863200  0.37440000  1
  Mo  Mo7  1  0.75674184  0.91673790  0.42505470  1
  Mo  Mo8  1  0.74122749  0.91663208  0.52721365  1
  Mo  Mo9  1  0.26745697  0.58062317  0.52720918  1
  Mo  Mo10  1  0.73070431  0.44171825  0.56669119  1
  Mo  Mo11  1  0.27987289  0.05698409  0.56638128  1
  C  C12  1  0.50299795  0.74863145  0.47504831  1
  C  C13  1  0.00000200  0.25000000  0.32540000  1
  C  C14  1  0.50144492  0.24931593  0.42498773  1
  C  C15  1  0.00000900  0.75000600  0.37460000  1
  C  C16  1  0.00349827  0.24913430  0.52665574  1
  C  C17  1  0.00551326  0.74918838  0.58209412  1
  H  H18  1  0.01180405  0.75497599  0.61905221  1
