# generated using pymatgen
data_Mo12HC6
_symmetry_space_group_name_H-M   'P 1'
_cell_length_a   4.68437300
_cell_length_b   5.20389200
_cell_length_c   30.20378500
_cell_angle_alpha   90.00027525
_cell_angle_beta   89.99949852
_cell_angle_gamma   90.00012111
_symmetry_Int_Tables_number   1
_chemical_formula_structural   Mo12HC6
_chemical_formula_sum   'Mo12 H1 C6'
_cell_volume   736.27679646
_cell_formula_units_Z   1
loop_
 _symmetry_equiv_pos_site_id
 _symmetry_equiv_pos_as_xyz
  1  'x, y, z'
loop_
 _atom_site_type_symbol
 _atom_site_label
 _atom_site_symmetry_multiplicity
 _atom_site_fract_x
 _atom_site_fract_y
 _atom_site_fract_z
 _atom_site_occupancy
  Mo  Mo0  1  0.24251370  0.08653048  0.47425831  1
  Mo  Mo1  1  0.74571300  0.92137600  0.32559700  1
  Mo  Mo2  1  0.25429200  0.57864400  0.32559900  1
  Mo  Mo3  1  0.76063007  0.41428811  0.47422961  1
  Mo  Mo4  1  0.24710247  0.58255347  0.42472799  1
  Mo  Mo5  1  0.74571400  0.42136300  0.37440200  1
  Mo  Mo6  1  0.25428000  0.07863200  0.37440000  1
  Mo  Mo7  1  0.75450227  0.91838493  0.42471972  1
  Mo  Mo8  1  0.73744940  0.92223236  0.52575477  1
  Mo  Mo9  1  0.26686004  0.57930288  0.52578918  1
  Mo  Mo10  1  0.73510891  0.44609410  0.56861445  1
  Mo  Mo11  1  0.26984084  0.05604696  0.56860171  1
  C  C12  1  0.50159161  0.75045618  0.47443180  1
  C  C13  1  0.00000200  0.25000000  0.32540000  1
  C  C14  1  0.50069322  0.25036259  0.42515872  1
  C  C15  1  0.00000900  0.75000600  0.37460000  1
  C  C16  1  0.00205553  0.25086996  0.52723715  1
  C  C17  1  0.00247017  0.75108679  0.57524319  1
  H  H18  1  0.50227840  0.25142238  0.60708851  1
