# generated using pymatgen
data_Ag26HPt
_symmetry_space_group_name_H-M   'P 1'
_cell_length_a   8.60496519
_cell_length_b   8.60496881
_cell_length_c   23.47925300
_cell_angle_alpha   90.00483404
_cell_angle_beta   93.49762144
_cell_angle_gamma   119.99565775
_symmetry_Int_Tables_number   1
_chemical_formula_structural   Ag26HPt
_chemical_formula_sum   'Ag26 H1 Pt1'
_cell_volume   1501.93330901
_cell_formula_units_Z   1
loop_
 _symmetry_equiv_pos_site_id
 _symmetry_equiv_pos_as_xyz
  1  'x, y, z'
loop_
 _atom_site_type_symbol
 _atom_site_label
 _atom_site_symmetry_multiplicity
 _atom_site_fract_x
 _atom_site_fract_y
 _atom_site_fract_z
 _atom_site_occupancy
  Ag  Ag0  1  0.20000000  0.26666700  0.40000000  1
  Ag  Ag1  1  0.20000000  0.60000000  0.40000000  1
  Ag  Ag2  1  0.20000000  0.93333300  0.40000000  1
  Ag  Ag3  1  0.53333300  0.26666700  0.40000000  1
  Ag  Ag4  1  0.53333300  0.60000000  0.40000000  1
  Ag  Ag5  1  0.53333300  0.93333300  0.40000000  1
  Ag  Ag6  1  0.86666700  0.26666700  0.40000000  1
  Ag  Ag7  1  0.86666700  0.60000000  0.40000000  1
  Ag  Ag8  1  0.86666700  0.93333300  0.40000000  1
  Ag  Ag9  1  0.33453888  0.16752648  0.50194829  1
  Ag  Ag10  1  0.33454331  0.50036274  0.50195102  1
  Ag  Ag11  1  0.33604422  0.83470076  0.50369563  1
  Ag  Ag12  1  0.66905468  0.16776862  0.50310116  1
  Ag  Ag13  1  0.66872118  0.50103412  0.50106733  1
  Ag  Ag14  1  0.66906691  0.83463181  0.50310289  1
  Ag  Ag15  1  0.00144024  0.16739245  0.50297896  1
  Ag  Ag16  1  0.00166540  0.50143967  0.50369910  1
  Ag  Ag17  1  0.00168245  0.83358968  0.50370187  1
  Ag  Ag18  1  0.13959316  0.07083290  0.60526037  1
  Ag  Ag19  1  0.13956353  0.40211745  0.60525817  1
  Ag  Ag20  1  0.14009930  0.73673283  0.60633170  1
  Ag  Ag21  1  0.47158256  0.07056186  0.60584360  1
  Ag  Ag22  1  0.47158050  0.73436524  0.60584091  1
  Ag  Ag23  1  0.80485371  0.06910400  0.60532023  1
  Ag  Ag24  1  0.80553583  0.40215260  0.60557826  1
  Ag  Ag25  1  0.80554552  0.73675586  0.60558205  1
  Pt  Pt26  1  0.46799849  0.40067402  0.59999417  1
  H  H27  1  0.63764809  0.48550082  0.64832392  1
