# generated using pymatgen
data_Ag26HPt
_symmetry_space_group_name_H-M   'P 1'
_cell_length_a   8.60496519
_cell_length_b   8.60496881
_cell_length_c   23.47925300
_cell_angle_alpha   90.00483404
_cell_angle_beta   93.49762144
_cell_angle_gamma   119.99565775
_symmetry_Int_Tables_number   1
_chemical_formula_structural   Ag26HPt
_chemical_formula_sum   'Ag26 H1 Pt1'
_cell_volume   1501.93330901
_cell_formula_units_Z   1
loop_
 _symmetry_equiv_pos_site_id
 _symmetry_equiv_pos_as_xyz
  1  'x, y, z'
loop_
 _atom_site_type_symbol
 _atom_site_label
 _atom_site_symmetry_multiplicity
 _atom_site_fract_x
 _atom_site_fract_y
 _atom_site_fract_z
 _atom_site_occupancy
  Ag  Ag0  1  0.20000000  0.26666700  0.40000000  1
  Ag  Ag1  1  0.20000000  0.60000000  0.40000000  1
  Ag  Ag2  1  0.20000000  0.93333300  0.40000000  1
  Ag  Ag3  1  0.53333300  0.26666700  0.40000000  1
  Ag  Ag4  1  0.53333300  0.60000000  0.40000000  1
  Ag  Ag5  1  0.53333300  0.93333300  0.40000000  1
  Ag  Ag6  1  0.86666700  0.26666700  0.40000000  1
  Ag  Ag7  1  0.86666700  0.60000000  0.40000000  1
  Ag  Ag8  1  0.86666700  0.93333300  0.40000000  1
  Ag  Ag9  1  0.33274544  0.16454141  0.50176227  1
  Ag  Ag10  1  0.33276426  0.50060890  0.50189437  1
  Ag  Ag11  1  0.33428606  0.83371206  0.50332218  1
  Ag  Ag12  1  0.66767106  0.16599187  0.50321795  1
  Ag  Ag13  1  0.66862577  0.50041978  0.50178233  1
  Ag  Ag14  1  0.66640961  0.83362785  0.50356246  1
  Ag  Ag15  1  0.00038124  0.16773406  0.50358164  1
  Ag  Ag16  1  0.00007090  0.49956676  0.50333291  1
  Ag  Ag17  1  0.00138419  0.83274821  0.50428378  1
  Ag  Ag18  1  0.13738502  0.07098894  0.60553117  1
  Ag  Ag19  1  0.13626654  0.39871879  0.60793402  1
  Ag  Ag20  1  0.13177266  0.73671961  0.60750492  1
  Ag  Ag21  1  0.46859581  0.07120459  0.60595610  1
  Ag  Ag22  1  0.47045393  0.73258907  0.60779560  1
  Ag  Ag23  1  0.80129459  0.06664549  0.60489058  1
  Ag  Ag24  1  0.79638109  0.39899358  0.60594274  1
  Ag  Ag25  1  0.79696070  0.73016772  0.60551321  1
  Pt  Pt26  1  0.46684595  0.39790001  0.59697850  1
  H  H27  1  0.25134995  0.63091725  0.64564935  1
