# generated using pymatgen
data_Mo12HC6
_symmetry_space_group_name_H-M   'P 1'
_cell_length_a   4.68437300
_cell_length_b   5.20389200
_cell_length_c   30.20378500
_cell_angle_alpha   90.00027525
_cell_angle_beta   89.99949852
_cell_angle_gamma   90.00012111
_symmetry_Int_Tables_number   1
_chemical_formula_structural   Mo12HC6
_chemical_formula_sum   'Mo12 H1 C6'
_cell_volume   736.27679646
_cell_formula_units_Z   1
loop_
 _symmetry_equiv_pos_site_id
 _symmetry_equiv_pos_as_xyz
  1  'x, y, z'
loop_
 _atom_site_type_symbol
 _atom_site_label
 _atom_site_symmetry_multiplicity
 _atom_site_fract_x
 _atom_site_fract_y
 _atom_site_fract_z
 _atom_site_occupancy
  Mo  Mo0  1  0.24344637  0.08455873  0.47374769  1
  Mo  Mo1  1  0.74571300  0.92137600  0.32559700  1
  Mo  Mo2  1  0.25429200  0.57864400  0.32559900  1
  Mo  Mo3  1  0.75662485  0.41528787  0.47374997  1
  Mo  Mo4  1  0.24475156  0.58234119  0.42482054  1
  Mo  Mo5  1  0.74571400  0.42136300  0.37440200  1
  Mo  Mo6  1  0.25428000  0.07863200  0.37440000  1
  Mo  Mo7  1  0.75526562  0.91756331  0.42482220  1
  Mo  Mo8  1  0.73727638  0.91808111  0.52678687  1
  Mo  Mo9  1  0.26288109  0.58178465  0.52678749  1
  Mo  Mo10  1  0.72534055  0.44277828  0.56598853  1
  Mo  Mo11  1  0.27489452  0.05712428  0.56598229  1
  C  C12  1  0.50004958  0.74992708  0.47475460  1
  C  C13  1  0.00000200  0.25000000  0.32540000  1
  C  C14  1  0.50001898  0.24995618  0.42485464  1
  C  C15  1  0.00000900  0.75000600  0.37460000  1
  C  C16  1  0.00007152  0.24993582  0.52620573  1
  C  C17  1  0.00011493  0.74995543  0.58183000  1
  H  H18  1  0.00014525  0.75000471  0.61880422  1
