# generated using pymatgen
data_Ag26HPtO2
_symmetry_space_group_name_H-M   'P 1'
_cell_length_a   8.60496519
_cell_length_b   8.60496881
_cell_length_c   23.47925300
_cell_angle_alpha   90.00483404
_cell_angle_beta   93.49762144
_cell_angle_gamma   119.99565775
_symmetry_Int_Tables_number   1
_chemical_formula_structural   Ag26HPtO2
_chemical_formula_sum   'Ag26 H1 Pt1 O2'
_cell_volume   1501.93330901
_cell_formula_units_Z   1
loop_
 _symmetry_equiv_pos_site_id
 _symmetry_equiv_pos_as_xyz
  1  'x, y, z'
loop_
 _atom_site_type_symbol
 _atom_site_label
 _atom_site_symmetry_multiplicity
 _atom_site_fract_x
 _atom_site_fract_y
 _atom_site_fract_z
 _atom_site_occupancy
  Ag  Ag0  1  0.20000000  0.26666700  0.40000000  1
  Ag  Ag1  1  0.20000000  0.60000000  0.40000000  1
  Ag  Ag2  1  0.20000000  0.93333300  0.40000000  1
  Ag  Ag3  1  0.53333300  0.26666700  0.40000000  1
  Ag  Ag4  1  0.53333300  0.60000000  0.40000000  1
  Ag  Ag5  1  0.53333300  0.93333300  0.40000000  1
  Ag  Ag6  1  0.86666700  0.26666700  0.40000000  1
  Ag  Ag7  1  0.86666700  0.60000000  0.40000000  1
  Ag  Ag8  1  0.86666700  0.93333300  0.40000000  1
  Ag  Ag9  1  0.33610191  0.16373752  0.49982515  1
  Ag  Ag10  1  0.33508631  0.49941159  0.49940181  1
  Ag  Ag11  1  0.33786363  0.83322778  0.50310122  1
  Ag  Ag12  1  0.67003754  0.16459042  0.50128475  1
  Ag  Ag13  1  0.67088515  0.49925550  0.49913349  1
  Ag  Ag14  1  0.67028484  0.83224925  0.50154404  1
  Ag  Ag15  1  0.00298466  0.16467337  0.50140508  1
  Ag  Ag16  1  0.00435298  0.49915636  0.50202779  1
  Ag  Ag17  1  0.00404391  0.83230141  0.50277208  1
  Ag  Ag18  1  0.14486019  0.06911689  0.60363901  1
  Ag  Ag19  1  0.14332498  0.39898887  0.60293561  1
  Ag  Ag20  1  0.13970819  0.73225259  0.60406745  1
  Ag  Ag21  1  0.48044415  0.07638119  0.60272369  1
  Ag  Ag22  1  0.47368722  0.72970373  0.60396470  1
  Ag  Ag23  1  0.80740987  0.06521465  0.60194451  1
  Ag  Ag24  1  0.80582387  0.40200326  0.60185899  1
  Ag  Ag25  1  0.80348615  0.72940997  0.60320325  1
  Pt  Pt26  1  0.47105179  0.40139839  0.59344997  1
  O  O27  1  0.41485513  0.00667284  0.69502234  1
  O  O28  1  0.46605831  0.08981277  0.74726573  1
  H  H29  1  0.56372323  0.21718709  0.74294392  1
