# generated using pymatgen
data_Ag26HPt
_symmetry_space_group_name_H-M   'P 1'
_cell_length_a   8.60496519
_cell_length_b   8.60496881
_cell_length_c   23.47925300
_cell_angle_alpha   90.00483404
_cell_angle_beta   93.49762144
_cell_angle_gamma   119.99565775
_symmetry_Int_Tables_number   1
_chemical_formula_structural   Ag26HPt
_chemical_formula_sum   'Ag26 H1 Pt1'
_cell_volume   1501.93330901
_cell_formula_units_Z   1
loop_
 _symmetry_equiv_pos_site_id
 _symmetry_equiv_pos_as_xyz
  1  'x, y, z'
loop_
 _atom_site_type_symbol
 _atom_site_label
 _atom_site_symmetry_multiplicity
 _atom_site_fract_x
 _atom_site_fract_y
 _atom_site_fract_z
 _atom_site_occupancy
  Ag  Ag0  1  0.20000000  0.26666700  0.40000000  1
  Ag  Ag1  1  0.20000000  0.60000000  0.40000000  1
  Ag  Ag2  1  0.20000000  0.93333300  0.40000000  1
  Ag  Ag3  1  0.53333300  0.26666700  0.40000000  1
  Ag  Ag4  1  0.53333300  0.60000000  0.40000000  1
  Ag  Ag5  1  0.53333300  0.93333300  0.40000000  1
  Ag  Ag6  1  0.86666700  0.26666700  0.40000000  1
  Ag  Ag7  1  0.86666700  0.60000000  0.40000000  1
  Ag  Ag8  1  0.86666700  0.93333300  0.40000000  1
  Ag  Ag9  1  0.33337903  0.16652597  0.50064721  1
  Ag  Ag10  1  0.33338059  0.50019507  0.50064684  1
  Ag  Ag11  1  0.33425623  0.83380407  0.50356707  1
  Ag  Ag12  1  0.66702135  0.16687218  0.50271827  1
  Ag  Ag13  1  0.66685641  0.50010091  0.50079146  1
  Ag  Ag14  1  0.66702389  0.83348027  0.50271957  1
  Ag  Ag15  1  0.00026702  0.16680397  0.50268358  1
  Ag  Ag16  1  0.00059325  0.49995345  0.50351934  1
  Ag  Ag17  1  0.00059985  0.83400097  0.50351930  1
  Ag  Ag18  1  0.13583074  0.06882044  0.60531587  1
  Ag  Ag19  1  0.13583237  0.40035512  0.60531200  1
  Ag  Ag20  1  0.13398815  0.73367628  0.60506124  1
  Ag  Ag21  1  0.46733144  0.06918937  0.60535115  1
  Ag  Ag22  1  0.46733410  0.73148107  0.60534976  1
  Ag  Ag23  1  0.80039507  0.06685695  0.60411668  1
  Ag  Ag24  1  0.79836504  0.40040326  0.60534275  1
  Ag  Ag25  1  0.79834702  0.73128891  0.60534652  1
  Pt  Pt26  1  0.46507529  0.39920830  0.59770731  1
  H  H27  1  0.46912796  0.40123806  0.66482677  1
