# generated using pymatgen
data_Ag26HPt
_symmetry_space_group_name_H-M   'P 1'
_cell_length_a   8.60496519
_cell_length_b   8.60496881
_cell_length_c   23.47925300
_cell_angle_alpha   90.00483404
_cell_angle_beta   93.49762144
_cell_angle_gamma   119.99565775
_symmetry_Int_Tables_number   1
_chemical_formula_structural   Ag26HPt
_chemical_formula_sum   'Ag26 H1 Pt1'
_cell_volume   1501.93330901
_cell_formula_units_Z   1
loop_
 _symmetry_equiv_pos_site_id
 _symmetry_equiv_pos_as_xyz
  1  'x, y, z'
loop_
 _atom_site_type_symbol
 _atom_site_label
 _atom_site_symmetry_multiplicity
 _atom_site_fract_x
 _atom_site_fract_y
 _atom_site_fract_z
 _atom_site_occupancy
  Ag  Ag0  1  0.20000000  0.26666700  0.40000000  1
  Ag  Ag1  1  0.20000000  0.60000000  0.40000000  1
  Ag  Ag2  1  0.20000000  0.93333300  0.40000000  1
  Ag  Ag3  1  0.53333300  0.26666700  0.40000000  1
  Ag  Ag4  1  0.53333300  0.60000000  0.40000000  1
  Ag  Ag5  1  0.53333300  0.93333300  0.40000000  1
  Ag  Ag6  1  0.86666700  0.26666700  0.40000000  1
  Ag  Ag7  1  0.86666700  0.60000000  0.40000000  1
  Ag  Ag8  1  0.86666700  0.93333300  0.40000000  1
  Ag  Ag9  1  0.33329293  0.16619163  0.50056968  1
  Ag  Ag10  1  0.33330229  0.50044730  0.50057156  1
  Ag  Ag11  1  0.33538374  0.83436810  0.50270814  1
  Ag  Ag12  1  0.66825473  0.16730590  0.50199875  1
  Ag  Ag13  1  0.66883196  0.50107801  0.50031725  1
  Ag  Ag14  1  0.66825711  0.83427199  0.50199566  1
  Ag  Ag15  1  0.00106136  0.16719830  0.50184116  1
  Ag  Ag16  1  0.00090331  0.50091862  0.50255043  1
  Ag  Ag17  1  0.00090076  0.83333606  0.50255229  1
  Ag  Ag18  1  0.13929692  0.07124749  0.60340478  1
  Ag  Ag19  1  0.13926840  0.40141177  0.60340096  1
  Ag  Ag20  1  0.13851922  0.73595755  0.60438258  1
  Ag  Ag21  1  0.47036973  0.07030173  0.60446142  1
  Ag  Ag22  1  0.47036102  0.73342897  0.60445819  1
  Ag  Ag23  1  0.80307277  0.06820714  0.60326743  1
  Ag  Ag24  1  0.80539841  0.40109599  0.60421295  1
  Ag  Ag25  1  0.80538274  0.73764141  0.60421468  1
  Pt  Pt26  1  0.46703631  0.40019603  0.59723884  1
  H  H27  1  0.64561452  0.48946641  0.64227166  1
