# generated using pymatgen
data_Ag26HPtO2
_symmetry_space_group_name_H-M   'P 1'
_cell_length_a   8.60496519
_cell_length_b   8.60496881
_cell_length_c   23.47925300
_cell_angle_alpha   90.00483404
_cell_angle_beta   93.49762144
_cell_angle_gamma   119.99565775
_symmetry_Int_Tables_number   1
_chemical_formula_structural   Ag26HPtO2
_chemical_formula_sum   'Ag26 H1 Pt1 O2'
_cell_volume   1501.93330901
_cell_formula_units_Z   1
loop_
 _symmetry_equiv_pos_site_id
 _symmetry_equiv_pos_as_xyz
  1  'x, y, z'
loop_
 _atom_site_type_symbol
 _atom_site_label
 _atom_site_symmetry_multiplicity
 _atom_site_fract_x
 _atom_site_fract_y
 _atom_site_fract_z
 _atom_site_occupancy
  Ag  Ag0  1  0.20000000  0.26666700  0.40000000  1
  Ag  Ag1  1  0.20000000  0.60000000  0.40000000  1
  Ag  Ag2  1  0.20000000  0.93333300  0.40000000  1
  Ag  Ag3  1  0.53333300  0.26666700  0.40000000  1
  Ag  Ag4  1  0.53333300  0.60000000  0.40000000  1
  Ag  Ag5  1  0.53333300  0.93333300  0.40000000  1
  Ag  Ag6  1  0.86666700  0.26666700  0.40000000  1
  Ag  Ag7  1  0.86666700  0.60000000  0.40000000  1
  Ag  Ag8  1  0.86666700  0.93333300  0.40000000  1
  Ag  Ag9  1  0.33231181  0.16714820  0.49920015  1
  Ag  Ag10  1  0.33329643  0.49891850  0.49959589  1
  Ag  Ag11  1  0.33142615  0.83306410  0.50142636  1
  Ag  Ag12  1  0.66570144  0.16667979  0.50097037  1
  Ag  Ag13  1  0.66322716  0.49914359  0.50008693  1
  Ag  Ag14  1  0.66597800  0.83392800  0.50119206  1
  Ag  Ag15  1  0.99836712  0.16703573  0.50089270  1
  Ag  Ag16  1  0.99952435  0.50050565  0.50153815  1
  Ag  Ag17  1  0.99800285  0.83253756  0.50186256  1
  Ag  Ag18  1  0.12929282  0.06480612  0.60133575  1
  Ag  Ag19  1  0.13047450  0.39951005  0.60224764  1
  Ag  Ag20  1  0.13092880  0.73292084  0.60282842  1
  Ag  Ag21  1  0.46366022  0.06644453  0.60168959  1
  Ag  Ag22  1  0.46482064  0.73277798  0.60152892  1
  Ag  Ag23  1  0.79729143  0.06661888  0.60163964  1
  Ag  Ag24  1  0.79671465  0.40084978  0.60179283  1
  Ag  Ag25  1  0.79444026  0.72953015  0.60368421  1
  Pt  Pt26  1  0.45949185  0.39722506  0.59620797  1
  O  O27  1  0.43725599  0.37998033  0.68018154  1
  O  O28  1  0.59897425  0.50630065  0.71206439  1
  H  H29  1  0.55042359  0.54448873  0.74347197  1
