# generated using pymatgen
data_Ag26HPt
_symmetry_space_group_name_H-M   'P 1'
_cell_length_a   8.60496519
_cell_length_b   8.60496881
_cell_length_c   23.47925300
_cell_angle_alpha   90.00483404
_cell_angle_beta   93.49762144
_cell_angle_gamma   119.99565775
_symmetry_Int_Tables_number   1
_chemical_formula_structural   Ag26HPt
_chemical_formula_sum   'Ag26 H1 Pt1'
_cell_volume   1501.93330901
_cell_formula_units_Z   1
loop_
 _symmetry_equiv_pos_site_id
 _symmetry_equiv_pos_as_xyz
  1  'x, y, z'
loop_
 _atom_site_type_symbol
 _atom_site_label
 _atom_site_symmetry_multiplicity
 _atom_site_fract_x
 _atom_site_fract_y
 _atom_site_fract_z
 _atom_site_occupancy
  Ag  Ag0  1  0.20000000  0.26666700  0.40000000  1
  Ag  Ag1  1  0.20000000  0.60000000  0.40000000  1
  Ag  Ag2  1  0.20000000  0.93333300  0.40000000  1
  Ag  Ag3  1  0.53333300  0.26666700  0.40000000  1
  Ag  Ag4  1  0.53333300  0.60000000  0.40000000  1
  Ag  Ag5  1  0.53333300  0.93333300  0.40000000  1
  Ag  Ag6  1  0.86666700  0.26666700  0.40000000  1
  Ag  Ag7  1  0.86666700  0.60000000  0.40000000  1
  Ag  Ag8  1  0.86666700  0.93333300  0.40000000  1
  Ag  Ag9  1  0.33270257  0.16479075  0.50078425  1
  Ag  Ag10  1  0.33259615  0.50052910  0.50088382  1
  Ag  Ag11  1  0.33433822  0.83417380  0.50233545  1
  Ag  Ag12  1  0.66766479  0.16606429  0.50248356  1
  Ag  Ag13  1  0.66832433  0.50042119  0.50081848  1
  Ag  Ag14  1  0.66585253  0.83333758  0.50260584  1
  Ag  Ag15  1  0.00030095  0.16777554  0.50258745  1
  Ag  Ag16  1  0.99953246  0.49936678  0.50228925  1
  Ag  Ag17  1  0.00133715  0.83258846  0.50334114  1
  Ag  Ag18  1  0.13712047  0.07044335  0.60400772  1
  Ag  Ag19  1  0.13568148  0.39771397  0.60605458  1
  Ag  Ag20  1  0.13130268  0.73641895  0.60580879  1
  Ag  Ag21  1  0.46820241  0.07061333  0.60445580  1
  Ag  Ag22  1  0.47020338  0.73209642  0.60613019  1
  Ag  Ag23  1  0.80059366  0.06623639  0.60337543  1
  Ag  Ag24  1  0.79657706  0.39898076  0.60442664  1
  Ag  Ag25  1  0.79668234  0.72988991  0.60402777  1
  Pt  Pt26  1  0.46657538  0.39771652  0.59560140  1
  H  H27  1  0.25056543  0.62971340  0.64275041  1
