# generated using pymatgen
data_Mo12HC6
_symmetry_space_group_name_H-M   'P 1'
_cell_length_a   4.68437300
_cell_length_b   5.20389200
_cell_length_c   30.20378500
_cell_angle_alpha   90.00027525
_cell_angle_beta   89.99949852
_cell_angle_gamma   90.00012111
_symmetry_Int_Tables_number   1
_chemical_formula_structural   Mo12HC6
_chemical_formula_sum   'Mo12 H1 C6'
_cell_volume   736.27679646
_cell_formula_units_Z   1
loop_
 _symmetry_equiv_pos_site_id
 _symmetry_equiv_pos_as_xyz
  1  'x, y, z'
loop_
 _atom_site_type_symbol
 _atom_site_label
 _atom_site_symmetry_multiplicity
 _atom_site_fract_x
 _atom_site_fract_y
 _atom_site_fract_z
 _atom_site_occupancy
  Mo  Mo0  1  0.24480835  0.08372753  0.47401973  1
  Mo  Mo1  1  0.74571300  0.92137600  0.32559700  1
  Mo  Mo2  1  0.25429200  0.57864400  0.32559900  1
  Mo  Mo3  1  0.75773358  0.41417669  0.47399767  1
  Mo  Mo4  1  0.24560807  0.58190889  0.42492061  1
  Mo  Mo5  1  0.74571400  0.42136300  0.37440200  1
  Mo  Mo6  1  0.25428000  0.07863200  0.37440000  1
  Mo  Mo7  1  0.75563283  0.91683004  0.42496156  1
  Mo  Mo8  1  0.73897972  0.91680615  0.52722548  1
  Mo  Mo9  1  0.26485698  0.58037398  0.52716455  1
  Mo  Mo10  1  0.72784650  0.44157983  0.56643223  1
  Mo  Mo11  1  0.27675869  0.05614003  0.56628388  1
  C  C12  1  0.50132439  0.74893126  0.47502527  1
  C  C13  1  0.00000200  0.25000000  0.32540000  1
  C  C14  1  0.50069482  0.24932992  0.42494797  1
  C  C15  1  0.00000900  0.75000600  0.37460000  1
  C  C16  1  0.00146283  0.24889418  0.52651389  1
  C  C17  1  0.00289922  0.74832083  0.58240197  1
  H  H18  1  0.00721011  0.75174668  0.61937359  1
