# generated using pymatgen
data_Ag26HPt
_symmetry_space_group_name_H-M   'P 1'
_cell_length_a   8.60496519
_cell_length_b   8.60496881
_cell_length_c   23.47925300
_cell_angle_alpha   90.00483404
_cell_angle_beta   93.49762144
_cell_angle_gamma   119.99565775
_symmetry_Int_Tables_number   1
_chemical_formula_structural   Ag26HPt
_chemical_formula_sum   'Ag26 H1 Pt1'
_cell_volume   1501.93330901
_cell_formula_units_Z   1
loop_
 _symmetry_equiv_pos_site_id
 _symmetry_equiv_pos_as_xyz
  1  'x, y, z'
loop_
 _atom_site_type_symbol
 _atom_site_label
 _atom_site_symmetry_multiplicity
 _atom_site_fract_x
 _atom_site_fract_y
 _atom_site_fract_z
 _atom_site_occupancy
  Ag  Ag0  1  0.20000000  0.26666700  0.40000000  1
  Ag  Ag1  1  0.20000000  0.60000000  0.40000000  1
  Ag  Ag2  1  0.20000000  0.93333300  0.40000000  1
  Ag  Ag3  1  0.53333300  0.26666700  0.40000000  1
  Ag  Ag4  1  0.53333300  0.60000000  0.40000000  1
  Ag  Ag5  1  0.53333300  0.93333300  0.40000000  1
  Ag  Ag6  1  0.86666700  0.26666700  0.40000000  1
  Ag  Ag7  1  0.86666700  0.60000000  0.40000000  1
  Ag  Ag8  1  0.86666700  0.93333300  0.40000000  1
  Ag  Ag9  1  0.33276179  0.16506741  0.50036530  1
  Ag  Ag10  1  0.33260130  0.50048050  0.50047800  1
  Ag  Ag11  1  0.33437742  0.83458379  0.50194534  1
  Ag  Ag12  1  0.66762957  0.16628365  0.50223848  1
  Ag  Ag13  1  0.66812196  0.50046872  0.50040763  1
  Ag  Ag14  1  0.66571286  0.83300464  0.50230736  1
  Ag  Ag15  1  0.00041463  0.16757085  0.50224014  1
  Ag  Ag16  1  0.99917460  0.49932306  0.50185737  1
  Ag  Ag17  1  0.00133435  0.83257392  0.50299592  1
  Ag  Ag18  1  0.13685971  0.07009568  0.60355959  1
  Ag  Ag19  1  0.13556258  0.39737024  0.60534461  1
  Ag  Ag20  1  0.13107561  0.73622691  0.60522048  1
  Ag  Ag21  1  0.46823170  0.07059465  0.60393602  1
  Ag  Ag22  1  0.46998858  0.73165059  0.60559206  1
  Ag  Ag23  1  0.80021400  0.06600568  0.60305825  1
  Ag  Ag24  1  0.79665992  0.39894344  0.60391054  1
  Ag  Ag25  1  0.79659645  0.73001185  0.60364109  1
  Pt  Pt26  1  0.46650400  0.39760518  0.59506071  1
  H  H27  1  0.25054019  0.62919263  0.64181190  1
