# generated using pymatgen
data_Mo12HC6
_symmetry_space_group_name_H-M   'P 1'
_cell_length_a   4.68437300
_cell_length_b   5.20389200
_cell_length_c   30.20378500
_cell_angle_alpha   90.00027525
_cell_angle_beta   89.99949852
_cell_angle_gamma   90.00012111
_symmetry_Int_Tables_number   1
_chemical_formula_structural   Mo12HC6
_chemical_formula_sum   'Mo12 H1 C6'
_cell_volume   736.27679646
_cell_formula_units_Z   1
loop_
 _symmetry_equiv_pos_site_id
 _symmetry_equiv_pos_as_xyz
  1  'x, y, z'
loop_
 _atom_site_type_symbol
 _atom_site_label
 _atom_site_symmetry_multiplicity
 _atom_site_fract_x
 _atom_site_fract_y
 _atom_site_fract_z
 _atom_site_occupancy
  Mo  Mo0  1  0.23817478  0.08979927  0.47435464  1
  Mo  Mo1  1  0.74571300  0.92137600  0.32559700  1
  Mo  Mo2  1  0.25429200  0.57864400  0.32559900  1
  Mo  Mo3  1  0.75568585  0.41712945  0.47431311  1
  Mo  Mo4  1  0.24502926  0.58414461  0.42484776  1
  Mo  Mo5  1  0.74571400  0.42136300  0.37440200  1
  Mo  Mo6  1  0.25428000  0.07863200  0.37440000  1
  Mo  Mo7  1  0.75204406  0.91960112  0.42464615  1
  Mo  Mo8  1  0.73115398  0.92620824  0.52595736  1
  Mo  Mo9  1  0.26058431  0.58328664  0.52583954  1
  Mo  Mo10  1  0.72848173  0.44990470  0.56858202  1
  Mo  Mo11  1  0.26262188  0.05970594  0.56866506  1
  C  C12  1  0.49744811  0.75381800  0.47458123  1
  C  C13  1  0.00000200  0.25000000  0.32540000  1
  C  C14  1  0.49832155  0.25188125  0.42517665  1
  C  C15  1  0.00000900  0.75000600  0.37460000  1
  C  C16  1  0.99631038  0.25457056  0.52729108  1
  C  C17  1  0.99604324  0.75448531  0.57553041  1
  H  H18  1  0.49347058  0.25704281  0.60705916  1
