# generated using pymatgen
data_Ag26HPtO2
_symmetry_space_group_name_H-M   'P 1'
_cell_length_a   8.60496519
_cell_length_b   8.60496881
_cell_length_c   23.47925300
_cell_angle_alpha   90.00483404
_cell_angle_beta   93.49762144
_cell_angle_gamma   119.99565775
_symmetry_Int_Tables_number   1
_chemical_formula_structural   Ag26HPtO2
_chemical_formula_sum   'Ag26 H1 Pt1 O2'
_cell_volume   1501.93330901
_cell_formula_units_Z   1
loop_
 _symmetry_equiv_pos_site_id
 _symmetry_equiv_pos_as_xyz
  1  'x, y, z'
loop_
 _atom_site_type_symbol
 _atom_site_label
 _atom_site_symmetry_multiplicity
 _atom_site_fract_x
 _atom_site_fract_y
 _atom_site_fract_z
 _atom_site_occupancy
  Ag  Ag0  1  0.20000000  0.26666700  0.40000000  1
  Ag  Ag1  1  0.20000000  0.60000000  0.40000000  1
  Ag  Ag2  1  0.20000000  0.93333300  0.40000000  1
  Ag  Ag3  1  0.53333300  0.26666700  0.40000000  1
  Ag  Ag4  1  0.53333300  0.60000000  0.40000000  1
  Ag  Ag5  1  0.53333300  0.93333300  0.40000000  1
  Ag  Ag6  1  0.86666700  0.26666700  0.40000000  1
  Ag  Ag7  1  0.86666700  0.60000000  0.40000000  1
  Ag  Ag8  1  0.86666700  0.93333300  0.40000000  1
  Ag  Ag9  1  0.33452031  0.16457939  0.50184578  1
  Ag  Ag10  1  0.33290293  0.50058667  0.50096726  1
  Ag  Ag11  1  0.33492539  0.83349349  0.50317286  1
  Ag  Ag12  1  0.66693077  0.16556593  0.50349406  1
  Ag  Ag13  1  0.66994714  0.50094592  0.50100824  1
  Ag  Ag14  1  0.66825293  0.83389509  0.50287457  1
  Ag  Ag15  1  0.00205597  0.16659448  0.50285820  1
  Ag  Ag16  1  0.00094233  0.49882902  0.50319965  1
  Ag  Ag17  1  0.00225710  0.83458294  0.50411519  1
  Ag  Ag18  1  0.14204036  0.07096539  0.60636369  1
  Ag  Ag19  1  0.14000819  0.40029368  0.60532179  1
  Ag  Ag20  1  0.13180186  0.72862955  0.60427005  1
  Ag  Ag21  1  0.47139233  0.06637878  0.60448767  1
  Ag  Ag22  1  0.47002720  0.73038992  0.60509188  1
  Ag  Ag23  1  0.80719558  0.06766538  0.60418355  1
  Ag  Ag24  1  0.79931877  0.40038336  0.60508790  1
  Ag  Ag25  1  0.80127856  0.73182565  0.60587098  1
  Pt  Pt26  1  0.46942534  0.40387624  0.59580457  1
  O  O27  1  0.40542379  0.01594709  0.69463241  1
  O  O28  1  0.55367966  0.15930530  0.73110868  1
  H  H29  1  0.53807748  0.26354292  0.72304867  1
