# generated using pymatgen
data_Ag26HPt
_symmetry_space_group_name_H-M   'P 1'
_cell_length_a   8.60496519
_cell_length_b   8.60496881
_cell_length_c   23.47925300
_cell_angle_alpha   90.00483404
_cell_angle_beta   93.49762144
_cell_angle_gamma   119.99565775
_symmetry_Int_Tables_number   1
_chemical_formula_structural   Ag26HPt
_chemical_formula_sum   'Ag26 H1 Pt1'
_cell_volume   1501.93330901
_cell_formula_units_Z   1
loop_
 _symmetry_equiv_pos_site_id
 _symmetry_equiv_pos_as_xyz
  1  'x, y, z'
loop_
 _atom_site_type_symbol
 _atom_site_label
 _atom_site_symmetry_multiplicity
 _atom_site_fract_x
 _atom_site_fract_y
 _atom_site_fract_z
 _atom_site_occupancy
  Ag  Ag0  1  0.20000000  0.26666700  0.40000000  1
  Ag  Ag1  1  0.20000000  0.60000000  0.40000000  1
  Ag  Ag2  1  0.20000000  0.93333300  0.40000000  1
  Ag  Ag3  1  0.53333300  0.26666700  0.40000000  1
  Ag  Ag4  1  0.53333300  0.60000000  0.40000000  1
  Ag  Ag5  1  0.53333300  0.93333300  0.40000000  1
  Ag  Ag6  1  0.86666700  0.26666700  0.40000000  1
  Ag  Ag7  1  0.86666700  0.60000000  0.40000000  1
  Ag  Ag8  1  0.86666700  0.93333300  0.40000000  1
  Ag  Ag9  1  0.33406182  0.16747210  0.50208676  1
  Ag  Ag10  1  0.33406596  0.49993745  0.50208985  1
  Ag  Ag11  1  0.33432941  0.83384204  0.50462635  1
  Ag  Ag12  1  0.66736728  0.16691133  0.50390220  1
  Ag  Ag13  1  0.66635388  0.49985474  0.50224104  1
  Ag  Ag14  1  0.66736917  0.83380142  0.50390149  1
  Ag  Ag15  1  0.00037774  0.16686144  0.50387289  1
  Ag  Ag16  1  0.00081105  0.50016958  0.50459309  1
  Ag  Ag17  1  0.00081505  0.83400606  0.50459471  1
  Ag  Ag18  1  0.13593381  0.06875685  0.60728812  1
  Ag  Ag19  1  0.13592711  0.40051616  0.60728781  1
  Ag  Ag20  1  0.13442174  0.73388753  0.60727294  1
  Ag  Ag21  1  0.46774569  0.06905540  0.60731714  1
  Ag  Ag22  1  0.46775394  0.73202514  0.60731769  1
  Ag  Ag23  1  0.80092521  0.06712632  0.60668902  1
  Ag  Ag24  1  0.79907352  0.40055316  0.60735773  1
  Ag  Ag25  1  0.79906219  0.73185252  0.60735819  1
  Pt  Pt26  1  0.46578692  0.39956196  0.60093370  1
  H  H27  1  0.47144894  0.40239579  0.66831992  1
