# generated using pymatgen
data_Ag26HPt
_symmetry_space_group_name_H-M   'P 1'
_cell_length_a   8.60496519
_cell_length_b   8.60496881
_cell_length_c   23.47925300
_cell_angle_alpha   90.00483404
_cell_angle_beta   93.49762144
_cell_angle_gamma   119.99565775
_symmetry_Int_Tables_number   1
_chemical_formula_structural   Ag26HPt
_chemical_formula_sum   'Ag26 H1 Pt1'
_cell_volume   1501.93330901
_cell_formula_units_Z   1
loop_
 _symmetry_equiv_pos_site_id
 _symmetry_equiv_pos_as_xyz
  1  'x, y, z'
loop_
 _atom_site_type_symbol
 _atom_site_label
 _atom_site_symmetry_multiplicity
 _atom_site_fract_x
 _atom_site_fract_y
 _atom_site_fract_z
 _atom_site_occupancy
  Ag  Ag0  1  0.20000000  0.26666700  0.40000000  1
  Ag  Ag1  1  0.20000000  0.60000000  0.40000000  1
  Ag  Ag2  1  0.20000000  0.93333300  0.40000000  1
  Ag  Ag3  1  0.53333300  0.26666700  0.40000000  1
  Ag  Ag4  1  0.53333300  0.60000000  0.40000000  1
  Ag  Ag5  1  0.53333300  0.93333300  0.40000000  1
  Ag  Ag6  1  0.86666700  0.26666700  0.40000000  1
  Ag  Ag7  1  0.86666700  0.60000000  0.40000000  1
  Ag  Ag8  1  0.86666700  0.93333300  0.40000000  1
  Ag  Ag9  1  0.33449927  0.16868700  0.50212013  1
  Ag  Ag10  1  0.33451145  0.49916724  0.50212062  1
  Ag  Ag11  1  0.33349129  0.83342505  0.50315148  1
  Ag  Ag12  1  0.66715399  0.16656035  0.50274063  1
  Ag  Ag13  1  0.66492486  0.49914073  0.50226087  1
  Ag  Ag14  1  0.66715839  0.83394665  0.50274092  1
  Ag  Ag15  1  0.99973496  0.16653795  0.50270363  1
  Ag  Ag16  1  0.00055780  0.50044421  0.50311487  1
  Ag  Ag17  1  0.00055835  0.83347243  0.50311537  1
  Ag  Ag18  1  0.13465488  0.06796608  0.60500969  1
  Ag  Ag19  1  0.13465562  0.40003366  0.60500266  1
  Ag  Ag20  1  0.13383076  0.73359638  0.60516681  1
  Ag  Ag21  1  0.46734562  0.06812417  0.60506061  1
  Ag  Ag22  1  0.46734461  0.73255791  0.60506002  1
  Ag  Ag23  1  0.80044207  0.06688267  0.60504997  1
  Ag  Ag24  1  0.79916325  0.40006763  0.60508890  1
  Ag  Ag25  1  0.79914242  0.73241760  0.60508772  1
  Pt  Pt26  1  0.46617131  0.39975167  0.60244610  1
  H  H27  1  0.47356730  0.40344982  0.67015390  1
