# generated using pymatgen
data_Ag26HPt
_symmetry_space_group_name_H-M   'P 1'
_cell_length_a   8.60496519
_cell_length_b   8.60496881
_cell_length_c   23.47925300
_cell_angle_alpha   90.00483404
_cell_angle_beta   93.49762144
_cell_angle_gamma   119.99565775
_symmetry_Int_Tables_number   1
_chemical_formula_structural   Ag26HPt
_chemical_formula_sum   'Ag26 H1 Pt1'
_cell_volume   1501.93330901
_cell_formula_units_Z   1
loop_
 _symmetry_equiv_pos_site_id
 _symmetry_equiv_pos_as_xyz
  1  'x, y, z'
loop_
 _atom_site_type_symbol
 _atom_site_label
 _atom_site_symmetry_multiplicity
 _atom_site_fract_x
 _atom_site_fract_y
 _atom_site_fract_z
 _atom_site_occupancy
  Ag  Ag0  1  0.20000000  0.26666700  0.40000000  1
  Ag  Ag1  1  0.20000000  0.60000000  0.40000000  1
  Ag  Ag2  1  0.20000000  0.93333300  0.40000000  1
  Ag  Ag3  1  0.53333300  0.26666700  0.40000000  1
  Ag  Ag4  1  0.53333300  0.60000000  0.40000000  1
  Ag  Ag5  1  0.53333300  0.93333300  0.40000000  1
  Ag  Ag6  1  0.86666700  0.26666700  0.40000000  1
  Ag  Ag7  1  0.86666700  0.60000000  0.40000000  1
  Ag  Ag8  1  0.86666700  0.93333300  0.40000000  1
  Ag  Ag9  1  0.33379519  0.16638199  0.50139217  1
  Ag  Ag10  1  0.33380718  0.50076963  0.50139230  1
  Ag  Ag11  1  0.33635496  0.83485621  0.50376372  1
  Ag  Ag12  1  0.66927863  0.16779567  0.50302303  1
  Ag  Ag13  1  0.66879940  0.50107365  0.50109601  1
  Ag  Ag14  1  0.66928384  0.83482579  0.50302659  1
  Ag  Ag15  1  0.00199993  0.16767155  0.50275623  1
  Ag  Ag16  1  0.00116681  0.50131639  0.50365941  1
  Ag  Ag17  1  0.00117249  0.83320847  0.50366390  1
  Ag  Ag18  1  0.13954885  0.07091254  0.60486795  1
  Ag  Ag19  1  0.13952015  0.40199753  0.60485703  1
  Ag  Ag20  1  0.13978845  0.73658245  0.60648003  1
  Ag  Ag21  1  0.47139898  0.07063820  0.60610684  1
  Ag  Ag22  1  0.47139927  0.73411990  0.60610647  1
  Ag  Ag23  1  0.80445270  0.06890213  0.60523364  1
  Ag  Ag24  1  0.80557913  0.40186372  0.60607971  1
  Ag  Ag25  1  0.80558059  0.73708762  0.60608714  1
  Pt  Pt26  1  0.46713001  0.40024611  0.59854474  1
  H  H27  1  0.63987816  0.48660913  0.64556467  1
