# generated using pymatgen
data_Mo12HC6
_symmetry_space_group_name_H-M   'P 1'
_cell_length_a   4.68437300
_cell_length_b   5.20389200
_cell_length_c   30.20378500
_cell_angle_alpha   90.00027525
_cell_angle_beta   89.99949852
_cell_angle_gamma   90.00012111
_symmetry_Int_Tables_number   1
_chemical_formula_structural   Mo12HC6
_chemical_formula_sum   'Mo12 H1 C6'
_cell_volume   736.27679646
_cell_formula_units_Z   1
loop_
 _symmetry_equiv_pos_site_id
 _symmetry_equiv_pos_as_xyz
  1  'x, y, z'
loop_
 _atom_site_type_symbol
 _atom_site_label
 _atom_site_symmetry_multiplicity
 _atom_site_fract_x
 _atom_site_fract_y
 _atom_site_fract_z
 _atom_site_occupancy
  Mo  Mo0  1  0.24094414  0.08719698  0.47393582  1
  Mo  Mo1  1  0.74571300  0.92137600  0.32559700  1
  Mo  Mo2  1  0.25429200  0.57864400  0.32559900  1
  Mo  Mo3  1  0.76109668  0.41506158  0.47389241  1
  Mo  Mo4  1  0.24668876  0.58301261  0.42463572  1
  Mo  Mo5  1  0.74571400  0.42136300  0.37440200  1
  Mo  Mo6  1  0.25428000  0.07863200  0.37440000  1
  Mo  Mo7  1  0.75434200  0.91865923  0.42457979  1
  Mo  Mo8  1  0.73722395  0.92276358  0.52543153  1
  Mo  Mo9  1  0.26573361  0.58099975  0.52545470  1
  Mo  Mo10  1  0.73424191  0.44731936  0.56814487  1
  Mo  Mo11  1  0.26921864  0.05716163  0.56814665  1
  C  C12  1  0.50114299  0.75126489  0.47424429  1
  C  C13  1  0.00000200  0.25000000  0.32540000  1
  C  C14  1  0.50040568  0.25074241  0.42503308  1
  C  C15  1  0.00000900  0.75000600  0.37460000  1
  C  C16  1  0.00143196  0.25197040  0.52702593  1
  C  C17  1  0.00169201  0.75231003  0.57533774  1
  H  H18  1  0.50123363  0.25301853  0.60697279  1
