# generated using pymatgen
data_Ag26HPtO
_symmetry_space_group_name_H-M   'P 1'
_cell_length_a   8.60496519
_cell_length_b   8.60496881
_cell_length_c   23.47925300
_cell_angle_alpha   90.00483404
_cell_angle_beta   93.49762144
_cell_angle_gamma   119.99565775
_symmetry_Int_Tables_number   1
_chemical_formula_structural   Ag26HPtO
_chemical_formula_sum   'Ag26 H1 Pt1 O1'
_cell_volume   1501.93330901
_cell_formula_units_Z   1
loop_
 _symmetry_equiv_pos_site_id
 _symmetry_equiv_pos_as_xyz
  1  'x, y, z'
loop_
 _atom_site_type_symbol
 _atom_site_label
 _atom_site_symmetry_multiplicity
 _atom_site_fract_x
 _atom_site_fract_y
 _atom_site_fract_z
 _atom_site_occupancy
  Ag  Ag0  1  0.20000000  0.26666700  0.40000000  1
  Ag  Ag1  1  0.20000000  0.60000000  0.40000000  1
  Ag  Ag2  1  0.20000000  0.93333300  0.40000000  1
  Ag  Ag3  1  0.53333300  0.26666700  0.40000000  1
  Ag  Ag4  1  0.53333300  0.60000000  0.40000000  1
  Ag  Ag5  1  0.53333300  0.93333300  0.40000000  1
  Ag  Ag6  1  0.86666700  0.26666700  0.40000000  1
  Ag  Ag7  1  0.86666700  0.60000000  0.40000000  1
  Ag  Ag8  1  0.86666700  0.93333300  0.40000000  1
  Ag  Ag9  1  0.34144267  0.16992000  0.50060216  1
  Ag  Ag10  1  0.34089767  0.50589050  0.49955893  1
  Ag  Ag11  1  0.34250190  0.83896843  0.50259388  1
  Ag  Ag12  1  0.67675334  0.17173914  0.50018351  1
  Ag  Ag13  1  0.67800090  0.50672377  0.49908231  1
  Ag  Ag14  1  0.67712444  0.84014662  0.50175943  1
  Ag  Ag15  1  0.01243418  0.17023733  0.50256645  1
  Ag  Ag16  1  0.01257938  0.50961842  0.50319092  1
  Ag  Ag17  1  0.01194616  0.84010695  0.50443227  1
  Ag  Ag18  1  0.15075329  0.08601178  0.60729299  1
  Ag  Ag19  1  0.15384034  0.40916639  0.60359873  1
  Ag  Ag20  1  0.14231576  0.72661377  0.60606503  1
  Ag  Ag21  1  0.50418337  0.08908581  0.60023213  1
  Ag  Ag22  1  0.48404081  0.74031704  0.60308352  1
  Ag  Ag23  1  0.82102077  0.07723899  0.60247897  1
  Ag  Ag24  1  0.81537870  0.41226663  0.60259004  1
  Ag  Ag25  1  0.81158767  0.73984149  0.60410684  1
  Pt  Pt26  1  0.48260476  0.41266349  0.59307030  1
  O  O27  1  0.29481041  0.97318012  0.65995631  1
  H  H28  1  0.32878639  0.98862635  0.70169385  1
