# generated using pymatgen
data_Ag26HPtO2
_symmetry_space_group_name_H-M   'P 1'
_cell_length_a   8.60496519
_cell_length_b   8.60496881
_cell_length_c   23.47925300
_cell_angle_alpha   90.00483404
_cell_angle_beta   93.49762144
_cell_angle_gamma   119.99565775
_symmetry_Int_Tables_number   1
_chemical_formula_structural   Ag26HPtO2
_chemical_formula_sum   'Ag26 H1 Pt1 O2'
_cell_volume   1501.93330901
_cell_formula_units_Z   1
loop_
 _symmetry_equiv_pos_site_id
 _symmetry_equiv_pos_as_xyz
  1  'x, y, z'
loop_
 _atom_site_type_symbol
 _atom_site_label
 _atom_site_symmetry_multiplicity
 _atom_site_fract_x
 _atom_site_fract_y
 _atom_site_fract_z
 _atom_site_occupancy
  Ag  Ag0  1  0.20000000  0.26666700  0.40000000  1
  Ag  Ag1  1  0.20000000  0.60000000  0.40000000  1
  Ag  Ag2  1  0.20000000  0.93333300  0.40000000  1
  Ag  Ag3  1  0.53333300  0.26666700  0.40000000  1
  Ag  Ag4  1  0.53333300  0.60000000  0.40000000  1
  Ag  Ag5  1  0.53333300  0.93333300  0.40000000  1
  Ag  Ag6  1  0.86666700  0.26666700  0.40000000  1
  Ag  Ag7  1  0.86666700  0.60000000  0.40000000  1
  Ag  Ag8  1  0.86666700  0.93333300  0.40000000  1
  Ag  Ag9  1  0.33496847  0.17022142  0.50389517  1
  Ag  Ag10  1  0.33640936  0.50350184  0.50201159  1
  Ag  Ag11  1  0.33460788  0.83831608  0.50372914  1
  Ag  Ag12  1  0.66643759  0.16872697  0.50333937  1
  Ag  Ag13  1  0.66604753  0.50334041  0.50197086  1
  Ag  Ag14  1  0.66726244  0.83538989  0.50247009  1
  Ag  Ag15  1  0.00163314  0.16873318  0.50324196  1
  Ag  Ag16  1  0.00093313  0.50251166  0.50275001  1
  Ag  Ag17  1  0.00314920  0.83817630  0.50359879  1
  Ag  Ag18  1  0.12464734  0.06233077  0.60726828  1
  Ag  Ag19  1  0.13390865  0.40330739  0.60455745  1
  Ag  Ag20  1  0.13297221  0.73348622  0.60524622  1
  Ag  Ag21  1  0.47026802  0.06311317  0.60761051  1
  Ag  Ag22  1  0.46878629  0.73615952  0.60420634  1
  Ag  Ag23  1  0.80074210  0.07003277  0.60472099  1
  Ag  Ag24  1  0.80151806  0.40341858  0.60463760  1
  Ag  Ag25  1  0.79899703  0.73588094  0.60403706  1
  Pt  Pt26  1  0.47253141  0.41392170  0.60149936  1
  O  O27  1  0.38813397  0.22926461  0.65981303  1
  O  O28  1  0.58265490  0.58880520  0.76622905  1
  H  H29  1  0.56153122  0.56043915  0.72508315  1
