# generated using pymatgen
data_Ag26HPt
_symmetry_space_group_name_H-M   'P 1'
_cell_length_a   8.60496519
_cell_length_b   8.60496881
_cell_length_c   23.47925300
_cell_angle_alpha   90.00483404
_cell_angle_beta   93.49762144
_cell_angle_gamma   119.99565775
_symmetry_Int_Tables_number   1
_chemical_formula_structural   Ag26HPt
_chemical_formula_sum   'Ag26 H1 Pt1'
_cell_volume   1501.93330901
_cell_formula_units_Z   1
loop_
 _symmetry_equiv_pos_site_id
 _symmetry_equiv_pos_as_xyz
  1  'x, y, z'
loop_
 _atom_site_type_symbol
 _atom_site_label
 _atom_site_symmetry_multiplicity
 _atom_site_fract_x
 _atom_site_fract_y
 _atom_site_fract_z
 _atom_site_occupancy
  Ag  Ag0  1  0.20000000  0.26666700  0.40000000  1
  Ag  Ag1  1  0.20000000  0.60000000  0.40000000  1
  Ag  Ag2  1  0.20000000  0.93333300  0.40000000  1
  Ag  Ag3  1  0.53333300  0.26666700  0.40000000  1
  Ag  Ag4  1  0.53333300  0.60000000  0.40000000  1
  Ag  Ag5  1  0.53333300  0.93333300  0.40000000  1
  Ag  Ag6  1  0.86666700  0.26666700  0.40000000  1
  Ag  Ag7  1  0.86666700  0.60000000  0.40000000  1
  Ag  Ag8  1  0.86666700  0.93333300  0.40000000  1
  Ag  Ag9  1  0.33335529  0.16637225  0.50017773  1
  Ag  Ag10  1  0.33336154  0.50032648  0.50017999  1
  Ag  Ag11  1  0.33541342  0.83438078  0.50242851  1
  Ag  Ag12  1  0.66829343  0.16734276  0.50169135  1
  Ag  Ag13  1  0.66861597  0.50096944  0.49996477  1
  Ag  Ag14  1  0.66829587  0.83427400  0.50168739  1
  Ag  Ag15  1  0.00099020  0.16716240  0.50149634  1
  Ag  Ag16  1  0.00084640  0.50094921  0.50223338  1
  Ag  Ag17  1  0.00084762  0.83324938  0.50223517  1
  Ag  Ag18  1  0.13924265  0.07120635  0.60268692  1
  Ag  Ag19  1  0.13922066  0.40140094  0.60268112  1
  Ag  Ag20  1  0.13838512  0.73588820  0.60363477  1
  Ag  Ag21  1  0.47034579  0.07056155  0.60380398  1
  Ag  Ag22  1  0.47034022  0.73315292  0.60380218  1
  Ag  Ag23  1  0.80304982  0.06819386  0.60254263  1
  Ag  Ag24  1  0.80504393  0.40116365  0.60363544  1
  Ag  Ag25  1  0.80502708  0.73721596  0.60363403  1
  Pt  Pt26  1  0.46708709  0.40022223  0.59672405  1
  H  H27  1  0.64555743  0.48943606  0.64162252  1
