# generated using pymatgen
data_Ag26HPtO
_symmetry_space_group_name_H-M   'P 1'
_cell_length_a   8.60496519
_cell_length_b   8.60496881
_cell_length_c   23.47925300
_cell_angle_alpha   90.00483404
_cell_angle_beta   93.49762144
_cell_angle_gamma   119.99565775
_symmetry_Int_Tables_number   1
_chemical_formula_structural   Ag26HPtO
_chemical_formula_sum   'Ag26 H1 Pt1 O1'
_cell_volume   1501.93330901
_cell_formula_units_Z   1
loop_
 _symmetry_equiv_pos_site_id
 _symmetry_equiv_pos_as_xyz
  1  'x, y, z'
loop_
 _atom_site_type_symbol
 _atom_site_label
 _atom_site_symmetry_multiplicity
 _atom_site_fract_x
 _atom_site_fract_y
 _atom_site_fract_z
 _atom_site_occupancy
  Ag  Ag0  1  0.20000000  0.26666700  0.40000000  1
  Ag  Ag1  1  0.20000000  0.60000000  0.40000000  1
  Ag  Ag2  1  0.20000000  0.93333300  0.40000000  1
  Ag  Ag3  1  0.53333300  0.26666700  0.40000000  1
  Ag  Ag4  1  0.53333300  0.60000000  0.40000000  1
  Ag  Ag5  1  0.53333300  0.93333300  0.40000000  1
  Ag  Ag6  1  0.86666700  0.26666700  0.40000000  1
  Ag  Ag7  1  0.86666700  0.60000000  0.40000000  1
  Ag  Ag8  1  0.86666700  0.93333300  0.40000000  1
  Ag  Ag9  1  0.33899665  0.17032299  0.50116150  1
  Ag  Ag10  1  0.33900270  0.50201702  0.50116001  1
  Ag  Ag11  1  0.33843136  0.83589187  0.50220214  1
  Ag  Ag12  1  0.67216321  0.16954135  0.50124792  1
  Ag  Ag13  1  0.67487737  0.50409538  0.49857585  1
  Ag  Ag14  1  0.67217622  0.83595772  0.50124773  1
  Ag  Ag15  1  0.00667749  0.17000229  0.50251839  1
  Ag  Ag16  1  0.00910804  0.50146109  0.50269734  1
  Ag  Ag17  1  0.00910730  0.84096087  0.50269448  1
  Ag  Ag18  1  0.14004946  0.06351387  0.60539047  1
  Ag  Ag19  1  0.14009174  0.40986897  0.60539036  1
  Ag  Ag20  1  0.14589128  0.73959680  0.60424286  1
  Ag  Ag21  1  0.47809398  0.07407299  0.60254489  1
  Ag  Ag22  1  0.47810068  0.73738988  0.60254380  1
  Ag  Ag23  1  0.80965012  0.07150302  0.60241779  1
  Ag  Ag24  1  0.81307405  0.40667730  0.60208683  1
  Ag  Ag25  1  0.81305696  0.73970674  0.60208238  1
  Pt  Pt26  1  0.49868964  0.41601659  0.59525313  1
  O  O27  1  0.31854980  0.32590603  0.65837015  1
  H  H28  1  0.37317152  0.35319294  0.69809695  1
