# generated using pymatgen
data_Ag26HPt
_symmetry_space_group_name_H-M   'P 1'
_cell_length_a   8.60496519
_cell_length_b   8.60496881
_cell_length_c   23.47925300
_cell_angle_alpha   90.00483404
_cell_angle_beta   93.49762144
_cell_angle_gamma   119.99565775
_symmetry_Int_Tables_number   1
_chemical_formula_structural   Ag26HPt
_chemical_formula_sum   'Ag26 H1 Pt1'
_cell_volume   1501.93330901
_cell_formula_units_Z   1
loop_
 _symmetry_equiv_pos_site_id
 _symmetry_equiv_pos_as_xyz
  1  'x, y, z'
loop_
 _atom_site_type_symbol
 _atom_site_label
 _atom_site_symmetry_multiplicity
 _atom_site_fract_x
 _atom_site_fract_y
 _atom_site_fract_z
 _atom_site_occupancy
  Ag  Ag0  1  0.20000000  0.26666700  0.40000000  1
  Ag  Ag1  1  0.20000000  0.60000000  0.40000000  1
  Ag  Ag2  1  0.20000000  0.93333300  0.40000000  1
  Ag  Ag3  1  0.53333300  0.26666700  0.40000000  1
  Ag  Ag4  1  0.53333300  0.60000000  0.40000000  1
  Ag  Ag5  1  0.53333300  0.93333300  0.40000000  1
  Ag  Ag6  1  0.86666700  0.26666700  0.40000000  1
  Ag  Ag7  1  0.86666700  0.60000000  0.40000000  1
  Ag  Ag8  1  0.86666700  0.93333300  0.40000000  1
  Ag  Ag9  1  0.33331082  0.16651200  0.50024610  1
  Ag  Ag10  1  0.33331754  0.50013454  0.50024624  1
  Ag  Ag11  1  0.33405155  0.83369936  0.50328007  1
  Ag  Ag12  1  0.66704788  0.16675448  0.50238580  1
  Ag  Ag13  1  0.66673374  0.50003892  0.50038634  1
  Ag  Ag14  1  0.66704684  0.83362288  0.50238985  1
  Ag  Ag15  1  0.00003932  0.16668736  0.50234833  1
  Ag  Ag16  1  0.00061657  0.50007131  0.50323724  1
  Ag  Ag17  1  0.00061913  0.83389858  0.50323855  1
  Ag  Ag18  1  0.13595953  0.06895412  0.60461893  1
  Ag  Ag19  1  0.13595135  0.40035016  0.60461116  1
  Ag  Ag20  1  0.13390316  0.73363426  0.60462338  1
  Ag  Ag21  1  0.46715726  0.06929581  0.60464537  1
  Ag  Ag22  1  0.46715285  0.73119331  0.60464574  1
  Ag  Ag23  1  0.80033234  0.06682272  0.60365072  1
  Ag  Ag24  1  0.79807594  0.40039359  0.60463878  1
  Ag  Ag25  1  0.79806362  0.73100870  0.60464515  1
  Pt  Pt26  1  0.46508097  0.39921037  0.59732695  1
  H  H27  1  0.46878294  0.40106384  0.66433185  1
