# generated using pymatgen
data_Ag26HPt
_symmetry_space_group_name_H-M   'P 1'
_cell_length_a   8.60496519
_cell_length_b   8.60496881
_cell_length_c   23.47925300
_cell_angle_alpha   90.00483404
_cell_angle_beta   93.49762144
_cell_angle_gamma   119.99565775
_symmetry_Int_Tables_number   1
_chemical_formula_structural   Ag26HPt
_chemical_formula_sum   'Ag26 H1 Pt1'
_cell_volume   1501.93330901
_cell_formula_units_Z   1
loop_
 _symmetry_equiv_pos_site_id
 _symmetry_equiv_pos_as_xyz
  1  'x, y, z'
loop_
 _atom_site_type_symbol
 _atom_site_label
 _atom_site_symmetry_multiplicity
 _atom_site_fract_x
 _atom_site_fract_y
 _atom_site_fract_z
 _atom_site_occupancy
  Ag  Ag0  1  0.20000000  0.26666700  0.40000000  1
  Ag  Ag1  1  0.20000000  0.60000000  0.40000000  1
  Ag  Ag2  1  0.20000000  0.93333300  0.40000000  1
  Ag  Ag3  1  0.53333300  0.26666700  0.40000000  1
  Ag  Ag4  1  0.53333300  0.60000000  0.40000000  1
  Ag  Ag5  1  0.53333300  0.93333300  0.40000000  1
  Ag  Ag6  1  0.86666700  0.26666700  0.40000000  1
  Ag  Ag7  1  0.86666700  0.60000000  0.40000000  1
  Ag  Ag8  1  0.86666700  0.93333300  0.40000000  1
  Ag  Ag9  1  0.33586210  0.16757618  0.50231316  1
  Ag  Ag10  1  0.33573683  0.50505350  0.50217709  1
  Ag  Ag11  1  0.33642979  0.83657571  0.50222585  1
  Ag  Ag12  1  0.66917376  0.16911448  0.50356234  1
  Ag  Ag13  1  0.67044672  0.50363769  0.50136818  1
  Ag  Ag14  1  0.66916735  0.83704654  0.50356410  1
  Ag  Ag15  1  0.00155178  0.16922282  0.50242705  1
  Ag  Ag16  1  0.00435127  0.50502609  0.50418589  1
  Ag  Ag17  1  0.00430212  0.83629857  0.50417805  1
  Ag  Ag18  1  0.14087457  0.07631925  0.60573759  1
  Ag  Ag19  1  0.14089871  0.40373608  0.60571386  1
  Ag  Ag20  1  0.13771425  0.73846328  0.60748068  1
  Ag  Ag21  1  0.47355567  0.08043274  0.60845226  1
  Ag  Ag22  1  0.47344283  0.73250072  0.60836638  1
  Ag  Ag23  1  0.80772750  0.07344630  0.60494346  1
  Ag  Ag24  1  0.80366862  0.40629543  0.60557417  1
  Ag  Ag25  1  0.80369484  0.73654117  0.60561335  1
  Pt  Pt26  1  0.47235027  0.40556855  0.59729326  1
  H  H27  1  0.38024572  0.85981472  0.64486487  1
