# generated using pymatgen
data_Ag26HPtO2
_symmetry_space_group_name_H-M   'P 1'
_cell_length_a   8.60496519
_cell_length_b   8.60496881
_cell_length_c   23.47925300
_cell_angle_alpha   90.00483404
_cell_angle_beta   93.49762144
_cell_angle_gamma   119.99565775
_symmetry_Int_Tables_number   1
_chemical_formula_structural   Ag26HPtO2
_chemical_formula_sum   'Ag26 H1 Pt1 O2'
_cell_volume   1501.93330901
_cell_formula_units_Z   1
loop_
 _symmetry_equiv_pos_site_id
 _symmetry_equiv_pos_as_xyz
  1  'x, y, z'
loop_
 _atom_site_type_symbol
 _atom_site_label
 _atom_site_symmetry_multiplicity
 _atom_site_fract_x
 _atom_site_fract_y
 _atom_site_fract_z
 _atom_site_occupancy
  Ag  Ag0  1  0.20000000  0.26666700  0.40000000  1
  Ag  Ag1  1  0.20000000  0.60000000  0.40000000  1
  Ag  Ag2  1  0.20000000  0.93333300  0.40000000  1
  Ag  Ag3  1  0.53333300  0.26666700  0.40000000  1
  Ag  Ag4  1  0.53333300  0.60000000  0.40000000  1
  Ag  Ag5  1  0.53333300  0.93333300  0.40000000  1
  Ag  Ag6  1  0.86666700  0.26666700  0.40000000  1
  Ag  Ag7  1  0.86666700  0.60000000  0.40000000  1
  Ag  Ag8  1  0.86666700  0.93333300  0.40000000  1
  Ag  Ag9  1  0.33489546  0.16513429  0.50250562  1
  Ag  Ag10  1  0.33340160  0.50115417  0.50115697  1
  Ag  Ag11  1  0.33572778  0.83519990  0.50412722  1
  Ag  Ag12  1  0.66669927  0.16629584  0.50418735  1
  Ag  Ag13  1  0.66987318  0.50160009  0.50131207  1
  Ag  Ag14  1  0.66874832  0.83501020  0.50278884  1
  Ag  Ag15  1  0.00159590  0.16741863  0.50251387  1
  Ag  Ag16  1  0.00105497  0.49959437  0.50304983  1
  Ag  Ag17  1  0.00188377  0.83493590  0.50367402  1
  Ag  Ag18  1  0.14055070  0.07186535  0.60550544  1
  Ag  Ag19  1  0.13963617  0.40153076  0.60522683  1
  Ag  Ag20  1  0.13173420  0.73032665  0.60428988  1
  Ag  Ag21  1  0.47131302  0.06832176  0.60776010  1
  Ag  Ag22  1  0.46986934  0.73065427  0.60485510  1
  Ag  Ag23  1  0.80636448  0.06872862  0.60424840  1
  Ag  Ag24  1  0.79969087  0.40192335  0.60535790  1
  Ag  Ag25  1  0.80100957  0.73290154  0.60582320  1
  Pt  Pt26  1  0.46959579  0.40382325  0.59658443  1
  O  O27  1  0.41209195  0.00903443  0.70081755  1
  O  O28  1  0.54730404  0.15739648  0.74042631  1
  H  H29  1  0.55421046  0.26445311  0.72286846  1
