# generated using pymatgen
data_Ag26HPtO
_symmetry_space_group_name_H-M   'P 1'
_cell_length_a   8.60496519
_cell_length_b   8.60496881
_cell_length_c   23.47925300
_cell_angle_alpha   90.00483404
_cell_angle_beta   93.49762144
_cell_angle_gamma   119.99565775
_symmetry_Int_Tables_number   1
_chemical_formula_structural   Ag26HPtO
_chemical_formula_sum   'Ag26 H1 Pt1 O1'
_cell_volume   1501.93330901
_cell_formula_units_Z   1
loop_
 _symmetry_equiv_pos_site_id
 _symmetry_equiv_pos_as_xyz
  1  'x, y, z'
loop_
 _atom_site_type_symbol
 _atom_site_label
 _atom_site_symmetry_multiplicity
 _atom_site_fract_x
 _atom_site_fract_y
 _atom_site_fract_z
 _atom_site_occupancy
  Ag  Ag0  1  0.20000000  0.26666700  0.40000000  1
  Ag  Ag1  1  0.20000000  0.60000000  0.40000000  1
  Ag  Ag2  1  0.20000000  0.93333300  0.40000000  1
  Ag  Ag3  1  0.53333300  0.26666700  0.40000000  1
  Ag  Ag4  1  0.53333300  0.60000000  0.40000000  1
  Ag  Ag5  1  0.53333300  0.93333300  0.40000000  1
  Ag  Ag6  1  0.86666700  0.26666700  0.40000000  1
  Ag  Ag7  1  0.86666700  0.60000000  0.40000000  1
  Ag  Ag8  1  0.86666700  0.93333300  0.40000000  1
  Ag  Ag9  1  0.33584267  0.16901945  0.50234637  1
  Ag  Ag10  1  0.33584401  0.50017038  0.50234790  1
  Ag  Ag11  1  0.33414611  0.83375166  0.50366863  1
  Ag  Ag12  1  0.66762271  0.16691564  0.50315031  1
  Ag  Ag13  1  0.66463989  0.49899944  0.50313063  1
  Ag  Ag14  1  0.66763162  0.83406076  0.50315203  1
  Ag  Ag15  1  0.00082087  0.16708052  0.50288781  1
  Ag  Ag16  1  0.00132423  0.50065931  0.50325981  1
  Ag  Ag17  1  0.00132945  0.83402143  0.50326003  1
  Ag  Ag18  1  0.13285918  0.06511592  0.60457052  1
  Ag  Ag19  1  0.13287040  0.40109041  0.60456751  1
  Ag  Ag20  1  0.13545322  0.73440766  0.60564286  1
  Ag  Ag21  1  0.46920450  0.06797543  0.60572672  1
  Ag  Ag22  1  0.46920766  0.73456407  0.60572150  1
  Ag  Ag23  1  0.80204690  0.06768969  0.60539811  1
  Ag  Ag24  1  0.80065032  0.40112556  0.60611517  1
  Ag  Ag25  1  0.80062906  0.73285232  0.60612098  1
  Pt  Pt26  1  0.46708711  0.40020357  0.60062947  1
  O  O27  1  0.40731658  0.37035883  0.68524163  1
  H  H28  1  0.52391412  0.42875065  0.70781585  1
