# generated using pymatgen
data_Ag26HPt
_symmetry_space_group_name_H-M   'P 1'
_cell_length_a   8.60496519
_cell_length_b   8.60496881
_cell_length_c   23.47925300
_cell_angle_alpha   90.00483404
_cell_angle_beta   93.49762144
_cell_angle_gamma   119.99565775
_symmetry_Int_Tables_number   1
_chemical_formula_structural   Ag26HPt
_chemical_formula_sum   'Ag26 H1 Pt1'
_cell_volume   1501.93330901
_cell_formula_units_Z   1
loop_
 _symmetry_equiv_pos_site_id
 _symmetry_equiv_pos_as_xyz
  1  'x, y, z'
loop_
 _atom_site_type_symbol
 _atom_site_label
 _atom_site_symmetry_multiplicity
 _atom_site_fract_x
 _atom_site_fract_y
 _atom_site_fract_z
 _atom_site_occupancy
  Ag  Ag0  1  0.20000000  0.26666700  0.40000000  1
  Ag  Ag1  1  0.20000000  0.60000000  0.40000000  1
  Ag  Ag2  1  0.20000000  0.93333300  0.40000000  1
  Ag  Ag3  1  0.53333300  0.26666700  0.40000000  1
  Ag  Ag4  1  0.53333300  0.60000000  0.40000000  1
  Ag  Ag5  1  0.53333300  0.93333300  0.40000000  1
  Ag  Ag6  1  0.86666700  0.26666700  0.40000000  1
  Ag  Ag7  1  0.86666700  0.60000000  0.40000000  1
  Ag  Ag8  1  0.86666700  0.93333300  0.40000000  1
  Ag  Ag9  1  0.33305676  0.16518646  0.50143555  1
  Ag  Ag10  1  0.33287356  0.50065314  0.50148192  1
  Ag  Ag11  1  0.33402415  0.83406777  0.50271279  1
  Ag  Ag12  1  0.66766673  0.16635756  0.50269765  1
  Ag  Ag13  1  0.66839487  0.50055796  0.50146136  1
  Ag  Ag14  1  0.66596349  0.83309283  0.50315372  1
  Ag  Ag15  1  0.00082630  0.16784540  0.50310072  1
  Ag  Ag16  1  0.99992728  0.49993895  0.50263154  1
  Ag  Ag17  1  0.00106534  0.83313596  0.50367808  1
  Ag  Ag18  1  0.13681197  0.06985388  0.60486769  1
  Ag  Ag19  1  0.13542138  0.39769438  0.60638936  1
  Ag  Ag20  1  0.13189208  0.73611590  0.60663732  1
  Ag  Ag21  1  0.46878373  0.07059858  0.60493625  1
  Ag  Ag22  1  0.46966937  0.73217110  0.60659019  1
  Ag  Ag23  1  0.80066285  0.06630764  0.60465894  1
  Ag  Ag24  1  0.79704553  0.39882808  0.60488777  1
  Ag  Ag25  1  0.79747968  0.73072527  0.60493451  1
  Pt  Pt26  1  0.46771308  0.39738080  0.59738455  1
  H  H27  1  0.25070694  0.62851938  0.64511324  1
