# generated using pymatgen
data_Mo12HC6
_symmetry_space_group_name_H-M   'P 1'
_cell_length_a   4.68437300
_cell_length_b   5.20389200
_cell_length_c   30.20378500
_cell_angle_alpha   90.00027525
_cell_angle_beta   89.99949852
_cell_angle_gamma   90.00012111
_symmetry_Int_Tables_number   1
_chemical_formula_structural   Mo12HC6
_chemical_formula_sum   'Mo12 H1 C6'
_cell_volume   736.27679646
_cell_formula_units_Z   1
loop_
 _symmetry_equiv_pos_site_id
 _symmetry_equiv_pos_as_xyz
  1  'x, y, z'
loop_
 _atom_site_type_symbol
 _atom_site_label
 _atom_site_symmetry_multiplicity
 _atom_site_fract_x
 _atom_site_fract_y
 _atom_site_fract_z
 _atom_site_occupancy
  Mo  Mo0  1  0.24269015  0.08459454  0.47352509  1
  Mo  Mo1  1  0.74571300  0.92137600  0.32559700  1
  Mo  Mo2  1  0.25429200  0.57864400  0.32559900  1
  Mo  Mo3  1  0.75728617  0.41531608  0.47352735  1
  Mo  Mo4  1  0.24503147  0.58256283  0.42471880  1
  Mo  Mo5  1  0.74571400  0.42136300  0.37440200  1
  Mo  Mo6  1  0.25428000  0.07863200  0.37440000  1
  Mo  Mo7  1  0.75492025  0.91736324  0.42471776  1
  Mo  Mo8  1  0.73654873  0.91875469  0.52656088  1
  Mo  Mo9  1  0.26348713  0.58119381  0.52656250  1
  Mo  Mo10  1  0.72510696  0.44184182  0.56583539  1
  Mo  Mo11  1  0.27504135  0.05814217  0.56582757  1
  C  C12  1  0.49999842  0.74995784  0.47455257  1
  C  C13  1  0.00000200  0.25000000  0.32540000  1
  C  C14  1  0.49999134  0.24997067  0.42474262  1
  C  C15  1  0.00000900  0.75000600  0.37460000  1
  C  C16  1  0.00001782  0.24997468  0.52601886  1
  C  C17  1  0.00004123  0.75000243  0.58130721  1
  H  H18  1  0.00001098  0.75009130  0.61825947  1
