# generated using pymatgen
data_Mo12HC6
_symmetry_space_group_name_H-M   'P 1'
_cell_length_a   4.68437300
_cell_length_b   5.20389200
_cell_length_c   30.20378500
_cell_angle_alpha   90.00027525
_cell_angle_beta   89.99949852
_cell_angle_gamma   90.00012111
_symmetry_Int_Tables_number   1
_chemical_formula_structural   Mo12HC6
_chemical_formula_sum   'Mo12 H1 C6'
_cell_volume   736.27679646
_cell_formula_units_Z   1
loop_
 _symmetry_equiv_pos_site_id
 _symmetry_equiv_pos_as_xyz
  1  'x, y, z'
loop_
 _atom_site_type_symbol
 _atom_site_label
 _atom_site_symmetry_multiplicity
 _atom_site_fract_x
 _atom_site_fract_y
 _atom_site_fract_z
 _atom_site_occupancy
  Mo  Mo0  1  0.24333262  0.08464580  0.47373120  1
  Mo  Mo1  1  0.74571300  0.92137600  0.32559700  1
  Mo  Mo2  1  0.25429200  0.57864400  0.32559900  1
  Mo  Mo3  1  0.75671627  0.41515989  0.47373390  1
  Mo  Mo4  1  0.24466683  0.58238399  0.42482652  1
  Mo  Mo5  1  0.74571400  0.42136300  0.37440200  1
  Mo  Mo6  1  0.25428000  0.07863200  0.37440000  1
  Mo  Mo7  1  0.75534076  0.91748914  0.42482997  1
  Mo  Mo8  1  0.73726690  0.91789127  0.52674030  1
  Mo  Mo9  1  0.26284912  0.58190314  0.52674039  1
  Mo  Mo10  1  0.72519015  0.44259009  0.56604465  1
  Mo  Mo11  1  0.27498797  0.05722917  0.56604017  1
  C  C12  1  0.50003339  0.74990294  0.47471874  1
  C  C13  1  0.00000200  0.25000000  0.32540000  1
  C  C14  1  0.50001553  0.24994178  0.42485756  1
  C  C15  1  0.00000900  0.75000600  0.37460000  1
  C  C16  1  0.00005376  0.24989821  0.52626476  1
  C  C17  1  0.00009027  0.74990951  0.58167067  1
  H  H18  1  0.00011268  0.74993641  0.61861148  1
