# generated using pymatgen
data_Ag26HPtO2
_symmetry_space_group_name_H-M   'P 1'
_cell_length_a   8.60496519
_cell_length_b   8.60496881
_cell_length_c   23.47925300
_cell_angle_alpha   90.00483404
_cell_angle_beta   93.49762144
_cell_angle_gamma   119.99565775
_symmetry_Int_Tables_number   1
_chemical_formula_structural   Ag26HPtO2
_chemical_formula_sum   'Ag26 H1 Pt1 O2'
_cell_volume   1501.93330901
_cell_formula_units_Z   1
loop_
 _symmetry_equiv_pos_site_id
 _symmetry_equiv_pos_as_xyz
  1  'x, y, z'
loop_
 _atom_site_type_symbol
 _atom_site_label
 _atom_site_symmetry_multiplicity
 _atom_site_fract_x
 _atom_site_fract_y
 _atom_site_fract_z
 _atom_site_occupancy
  Ag  Ag0  1  0.20000000  0.26666700  0.40000000  1
  Ag  Ag1  1  0.20000000  0.60000000  0.40000000  1
  Ag  Ag2  1  0.20000000  0.93333300  0.40000000  1
  Ag  Ag3  1  0.53333300  0.26666700  0.40000000  1
  Ag  Ag4  1  0.53333300  0.60000000  0.40000000  1
  Ag  Ag5  1  0.53333300  0.93333300  0.40000000  1
  Ag  Ag6  1  0.86666700  0.26666700  0.40000000  1
  Ag  Ag7  1  0.86666700  0.60000000  0.40000000  1
  Ag  Ag8  1  0.86666700  0.93333300  0.40000000  1
  Ag  Ag9  1  0.33084303  0.16333436  0.50195223  1
  Ag  Ag10  1  0.33324045  0.49819880  0.50067243  1
  Ag  Ag11  1  0.33227328  0.83252447  0.50318723  1
  Ag  Ag12  1  0.66297291  0.16209431  0.50229705  1
  Ag  Ag13  1  0.66289237  0.49818030  0.50067816  1
  Ag  Ag14  1  0.66368621  0.82897020  0.50222328  1
  Ag  Ag15  1  0.99763285  0.16207582  0.50233277  1
  Ag  Ag16  1  0.99734832  0.49636868  0.50180745  1
  Ag  Ag17  1  0.99913683  0.83266350  0.50312290  1
  Ag  Ag18  1  0.12071356  0.05342190  0.60655187  1
  Ag  Ag19  1  0.12799582  0.39300549  0.60334467  1
  Ag  Ag20  1  0.12705550  0.72315520  0.60360557  1
  Ag  Ag21  1  0.46428716  0.05365329  0.60644359  1
  Ag  Ag22  1  0.46267869  0.72522113  0.60294169  1
  Ag  Ag23  1  0.79575237  0.06097549  0.60321600  1
  Ag  Ag24  1  0.79580449  0.39315805  0.60336403  1
  Ag  Ag25  1  0.79366734  0.72531919  0.60288857  1
  Pt  Pt26  1  0.46376730  0.39790806  0.59783145  1
  O  O27  1  0.38545396  0.22298318  0.65830093  1
  O  O28  1  0.59822936  0.61916602  0.78674995  1
  H  H29  1  0.60004251  0.63746091  0.74357167  1
