# generated using pymatgen
data_Cu
_symmetry_space_group_name_H-M   'P 1'
_cell_length_a   7.56931204
_cell_length_b   6.17958932
_cell_length_c   26.20755800
_cell_angle_alpha   89.93253853
_cell_angle_beta   90.00615399
_cell_angle_gamma   90.00637696
_symmetry_Int_Tables_number   1
_chemical_formula_structural   Cu
_chemical_formula_sum   Cu27
_cell_volume   1225.86394768
_cell_formula_units_Z   27
loop_
 _symmetry_equiv_pos_site_id
 _symmetry_equiv_pos_as_xyz
  1  'x, y, z'
loop_
 _atom_site_type_symbol
 _atom_site_label
 _atom_site_symmetry_multiplicity
 _atom_site_fract_x
 _atom_site_fract_y
 _atom_site_fract_z
 _atom_site_occupancy
  Cu  Cu0  1  0.00000100  0.70833300  0.43055600  1
  Cu  Cu1  1  0.33333400  0.70833300  0.43055600  1
  Cu  Cu2  1  0.66666700  0.70833300  0.43055600  1
  Cu  Cu3  1  0.00000100  0.04166600  0.48611100  1
  Cu  Cu4  1  0.33333400  0.04166600  0.48611100  1
  Cu  Cu5  1  0.66666700  0.04166600  0.48611100  1
  Cu  Cu6  1  0.00001137  0.37122590  0.54253738  1
  Cu  Cu7  1  0.33335451  0.37122684  0.54253787  1
  Cu  Cu8  1  0.66666817  0.37122608  0.54253740  1
  Cu  Cu9  1  0.16666700  0.37500000  0.45833300  1
  Cu  Cu10  1  0.50000000  0.37500000  0.45833300  1
  Cu  Cu11  1  0.83333400  0.37500000  0.45833300  1
  Cu  Cu12  1  0.16666599  0.70837395  0.51354999  1
  Cu  Cu13  1  0.50000955  0.70836854  0.51354668  1
  Cu  Cu14  1  0.83335337  0.70837424  0.51355023  1
  Cu  Cu15  1  0.00002704  0.69778064  0.59977572  1
  Cu  Cu16  1  0.33337274  0.69776936  0.59977191  1
  Cu  Cu17  1  0.66668002  0.69776839  0.59977091  1
  Cu  Cu18  1  0.00001609  0.03676977  0.65141885  1
  Cu  Cu19  1  0.33336615  0.03674813  0.65141733  1
  Cu  Cu20  1  0.66666570  0.03674679  0.65141668  1
  Cu  Cu21  1  0.16666826  0.03187120  0.57039851  1
  Cu  Cu22  1  0.50000970  0.03186225  0.57039475  1
  Cu  Cu23  1  0.83335234  0.03187171  0.57039873  1
  Cu  Cu24  1  0.16668754  0.36954533  0.62687102  1
  Cu  Cu25  1  0.50002558  0.36953213  0.62687393  1
  Cu  Cu26  1  0.83336264  0.36954607  0.62687123  1
