# generated using pymatgen
data_Cu
_symmetry_space_group_name_H-M   'P 1'
_cell_length_a   7.56931200
_cell_length_b   7.57163409
_cell_length_c   24.95416000
_cell_angle_alpha   89.99856981
_cell_angle_beta   89.99866020
_cell_angle_gamma   89.99125989
_symmetry_Int_Tables_number   1
_chemical_formula_structural   Cu
_chemical_formula_sum   Cu27
_cell_volume   1430.17431756
_cell_formula_units_Z   27
loop_
 _symmetry_equiv_pos_site_id
 _symmetry_equiv_pos_as_xyz
  1  'x, y, z'
loop_
 _atom_site_type_symbol
 _atom_site_label
 _atom_site_symmetry_multiplicity
 _atom_site_fract_x
 _atom_site_fract_y
 _atom_site_fract_z
 _atom_site_occupancy
  Cu  Cu0  1  0.99999669  0.99999638  0.53635407  1
  Cu  Cu1  1  0.99999661  0.33333993  0.53635302  1
  Cu  Cu2  1  0.99999647  0.66665293  0.53635281  1
  Cu  Cu3  1  0.33334087  0.99999627  0.53635309  1
  Cu  Cu4  1  0.33333633  0.33333535  0.53635120  1
  Cu  Cu5  1  0.33333655  0.66665757  0.53635069  1
  Cu  Cu6  1  0.66665412  0.99999616  0.53635282  1
  Cu  Cu7  1  0.66665871  0.33333555  0.53635062  1
  Cu  Cu8  1  0.66665869  0.66665757  0.53635028  1
  Cu  Cu9  1  0.00000100  0.00000000  0.39285700  1
  Cu  Cu10  1  0.00000100  0.33333300  0.39285700  1
  Cu  Cu11  1  0.00000100  0.66666700  0.39285700  1
  Cu  Cu12  1  0.33333400  0.00000000  0.39285700  1
  Cu  Cu13  1  0.33333400  0.33333300  0.39285700  1
  Cu  Cu14  1  0.33333400  0.66666700  0.39285700  1
  Cu  Cu15  1  0.66666700  0.00000000  0.39285700  1
  Cu  Cu16  1  0.66666700  0.33333300  0.39285700  1
  Cu  Cu17  1  0.66666700  0.66666700  0.39285700  1
  Cu  Cu18  1  0.16665856  0.16665796  0.46452988  1
  Cu  Cu19  1  0.16665508  0.49999920  0.46452826  1
  Cu  Cu20  1  0.16665849  0.83334072  0.46453038  1
  Cu  Cu21  1  0.49999997  0.16665446  0.46452838  1
  Cu  Cu22  1  0.49999986  0.49999907  0.46452686  1
  Cu  Cu23  1  0.49999992  0.83334430  0.46452869  1
  Cu  Cu24  1  0.83334134  0.16665787  0.46453035  1
  Cu  Cu25  1  0.83334488  0.49999914  0.46452853  1
  Cu  Cu26  1  0.83334144  0.83334079  0.46453084  1
