# generated using pymatgen
data_Rh
_symmetry_space_group_name_H-M   'P 1'
_cell_length_a   8.03675400
_cell_length_b   8.03670000
_cell_length_c   22.73128200
_cell_angle_alpha   89.99972196
_cell_angle_beta   89.99972196
_cell_angle_gamma   89.99991445
_symmetry_Int_Tables_number   1
_chemical_formula_structural   Rh
_chemical_formula_sum   Rh27
_cell_volume   1468.19033829
_cell_formula_units_Z   27
loop_
 _symmetry_equiv_pos_site_id
 _symmetry_equiv_pos_as_xyz
  1  'x, y, z'
loop_
 _atom_site_type_symbol
 _atom_site_label
 _atom_site_symmetry_multiplicity
 _atom_site_fract_x
 _atom_site_fract_y
 _atom_site_fract_z
 _atom_site_occupancy
  Rh  Rh0  1  0.99999574  0.99999784  0.45670344  1
  Rh  Rh1  1  0.99999577  0.33332892  0.45670196  1
  Rh  Rh2  1  0.99999581  0.66666570  0.45670191  1
  Rh  Rh3  1  0.33332907  0.99999784  0.45670147  1
  Rh  Rh4  1  0.33332910  0.33332904  0.45670010  1
  Rh  Rh5  1  0.33332907  0.66666557  0.45670006  1
  Rh  Rh6  1  0.66666772  0.99999786  0.45670182  1
  Rh  Rh7  1  0.66666762  0.33332891  0.45670043  1
  Rh  Rh8  1  0.66666759  0.66666570  0.45670037  1
  Rh  Rh9  1  0.16666700  0.16666700  0.37500000  1
  Rh  Rh10  1  0.16666700  0.50000000  0.37500000  1
  Rh  Rh11  1  0.16666700  0.83333300  0.37500000  1
  Rh  Rh12  1  0.50000000  0.16666700  0.37500000  1
  Rh  Rh13  1  0.50000000  0.50000000  0.37500000  1
  Rh  Rh14  1  0.50000000  0.83333300  0.37500000  1
  Rh  Rh15  1  0.83333300  0.16666700  0.37500000  1
  Rh  Rh16  1  0.83333300  0.50000000  0.37500000  1
  Rh  Rh17  1  0.83333300  0.83333300  0.37500000  1
  Rh  Rh18  1  0.16666336  0.16666344  0.53839087  1
  Rh  Rh19  1  0.16666349  0.49999496  0.53839069  1
  Rh  Rh20  1  0.16666332  0.83332663  0.53839087  1
  Rh  Rh21  1  0.49999496  0.16666355  0.53839045  1
  Rh  Rh22  1  0.49999493  0.49999500  0.53839052  1
  Rh  Rh23  1  0.49999497  0.83332651  0.53839050  1
  Rh  Rh24  1  0.83332647  0.16666338  0.53839079  1
  Rh  Rh25  1  0.83332638  0.49999501  0.53839066  1
  Rh  Rh26  1  0.83332647  0.83332659  0.53839086  1
