# generated using pymatgen
data_Pd
_symmetry_space_group_name_H-M   'P 1'
_cell_length_a   8.25699600
_cell_length_b   8.25682200
_cell_length_c   23.35403400
_cell_angle_alpha   89.99925057
_cell_angle_beta   89.99908404
_cell_angle_gamma   89.99983345
_symmetry_Int_Tables_number   1
_chemical_formula_structural   Pd
_chemical_formula_sum   Pd27
_cell_volume   1592.19737858
_cell_formula_units_Z   27
loop_
 _symmetry_equiv_pos_site_id
 _symmetry_equiv_pos_as_xyz
  1  'x, y, z'
loop_
 _atom_site_type_symbol
 _atom_site_label
 _atom_site_symmetry_multiplicity
 _atom_site_fract_x
 _atom_site_fract_y
 _atom_site_fract_z
 _atom_site_occupancy
  Pd  Pd0  1  0.99999863  0.33333413  0.45906970  1
  Pd  Pd1  1  0.99999972  0.66666523  0.45906989  1
  Pd  Pd2  1  0.99999972  0.00000174  0.45906965  1
  Pd  Pd3  1  0.33332933  0.33333392  0.45906984  1
  Pd  Pd4  1  0.33332950  0.66666674  0.45907016  1
  Pd  Pd5  1  0.33332981  0.00000045  0.45906985  1
  Pd  Pd6  1  0.66666373  0.33333396  0.45906872  1
  Pd  Pd7  1  0.66666248  0.66666567  0.45906903  1
  Pd  Pd8  1  0.66666220  0.00000160  0.45906888  1
  Pd  Pd9  1  0.16666300  0.16666600  0.37499900  1
  Pd  Pd10  1  0.16666300  0.50000000  0.37499900  1
  Pd  Pd11  1  0.16666300  0.83333300  0.37499900  1
  Pd  Pd12  1  0.49999600  0.16666600  0.37499900  1
  Pd  Pd13  1  0.49999600  0.50000000  0.37499900  1
  Pd  Pd14  1  0.49999600  0.83333300  0.37499900  1
  Pd  Pd15  1  0.83333000  0.16666600  0.37499900  1
  Pd  Pd16  1  0.83333000  0.50000000  0.37499900  1
  Pd  Pd17  1  0.83333000  0.83333300  0.37499900  1
  Pd  Pd18  1  0.16665973  0.16666237  0.54300229  1
  Pd  Pd19  1  0.16665880  0.49999405  0.54300386  1
  Pd  Pd20  1  0.16666387  0.83332531  0.54300236  1
  Pd  Pd21  1  0.49998800  0.16666030  0.54299991  1
  Pd  Pd22  1  0.49998757  0.49999486  0.54299924  1
  Pd  Pd23  1  0.49998456  0.83332662  0.54300072  1
  Pd  Pd24  1  0.83332763  0.16666537  0.54299907  1
  Pd  Pd25  1  0.83332888  0.49999076  0.54300023  1
  Pd  Pd26  1  0.83332678  0.83332573  0.54299487  1
