# generated using pymatgen
data_Mo
_symmetry_space_group_name_H-M   'P 1'
_cell_length_a   8.13431400
_cell_length_b   8.13432797
_cell_length_c   22.13894100
_cell_angle_alpha   90.00084524
_cell_angle_beta   90.00084525
_cell_angle_gamma   109.47202259
_symmetry_Int_Tables_number   1
_chemical_formula_structural   Mo
_chemical_formula_sum   Mo27
_cell_volume   1381.08702123
_cell_formula_units_Z   27
loop_
 _symmetry_equiv_pos_site_id
 _symmetry_equiv_pos_as_xyz
  1  'x, y, z'
loop_
 _atom_site_type_symbol
 _atom_site_label
 _atom_site_symmetry_multiplicity
 _atom_site_fract_x
 _atom_site_fract_y
 _atom_site_fract_z
 _atom_site_occupancy
  Mo  Mo0  1  0.99981749  0.33315186  0.59473082  1
  Mo  Mo1  1  0.99982226  0.66649497  0.59473516  1
  Mo  Mo2  1  0.99982233  0.99980179  0.59473439  1
  Mo  Mo3  1  0.33314911  0.33314179  0.59473234  1
  Mo  Mo4  1  0.33314496  0.66649349  0.59473386  1
  Mo  Mo5  1  0.33313982  0.99980506  0.59473614  1
  Mo  Mo6  1  0.66647757  0.33314825  0.59473209  1
  Mo  Mo7  1  0.66648665  0.66648675  0.59473324  1
  Mo  Mo8  1  0.66647354  0.99980651  0.59473270  1
  Mo  Mo9  1  0.16659050  0.16658477  0.49735717  1
  Mo  Mo10  1  0.16658947  0.49992657  0.49735661  1
  Mo  Mo11  1  0.16658953  0.83325605  0.49735889  1
  Mo  Mo12  1  0.49991996  0.16658592  0.49735605  1
  Mo  Mo13  1  0.49992347  0.49992323  0.49735628  1
  Mo  Mo14  1  0.49991976  0.83325647  0.49735794  1
  Mo  Mo15  1  0.83325502  0.16658767  0.49735550  1
  Mo  Mo16  1  0.83325776  0.49992571  0.49735539  1
  Mo  Mo17  1  0.83325862  0.83325455  0.49735800  1
  Mo  Mo18  1  0.00000000  0.33333300  0.40000000  1
  Mo  Mo19  1  0.00000000  0.66666600  0.40000000  1
  Mo  Mo20  1  1.00000000  1.00000000  0.40000000  1
  Mo  Mo21  1  0.33333300  0.33333300  0.40000000  1
  Mo  Mo22  1  0.33333300  0.66666600  0.40000000  1
  Mo  Mo23  1  0.33333300  1.00000000  0.40000000  1
  Mo  Mo24  1  0.66666700  0.33333300  0.40000000  1
  Mo  Mo25  1  0.66666700  0.66666600  0.40000000  1
  Mo  Mo26  1  0.66666700  1.00000000  0.40000000  1
