# generated using pymatgen
data_Cu2Se
_symmetry_space_group_name_H-M   'P 1'
_cell_length_a   8.09471283
_cell_length_b   8.09451676
_cell_length_c   26.54075200
_cell_angle_alpha   85.62693029
_cell_angle_beta   85.62705062
_cell_angle_gamma   59.99922007
_symmetry_Int_Tables_number   1
_chemical_formula_structural   Cu2Se
_chemical_formula_sum   'Cu24 Se12'
_cell_volume   1500.17856456
_cell_formula_units_Z   12
loop_
 _symmetry_equiv_pos_site_id
 _symmetry_equiv_pos_as_xyz
  1  'x, y, z'
loop_
 _atom_site_type_symbol
 _atom_site_label
 _atom_site_symmetry_multiplicity
 _atom_site_fract_x
 _atom_site_fract_y
 _atom_site_fract_z
 _atom_site_occupancy
  Cu  Cu0  1  0.26562200  0.26563000  0.40625100  1
  Cu  Cu1  1  0.26530957  0.76517295  0.40896496  1
  Cu  Cu2  1  0.76514370  0.26533938  0.40896492  1
  Cu  Cu3  1  0.76515378  0.76518323  0.40896149  1
  Cu  Cu4  1  0.10937300  0.10937800  0.34374900  1
  Cu  Cu5  1  0.10937400  0.60937800  0.34374900  1
  Cu  Cu6  1  0.60937400  0.10937800  0.34374900  1
  Cu  Cu7  1  0.60937400  0.60937800  0.34374900  1
  Cu  Cu8  1  0.07509408  0.07515985  0.54887636  1
  Cu  Cu9  1  0.07502981  0.57508363  0.54888503  1
  Cu  Cu10  1  0.57501242  0.07509937  0.54888406  1
  Cu  Cu11  1  0.57500586  0.57507389  0.54897950  1
  Cu  Cu12  1  0.42237217  0.42234704  0.46808768  1
  Cu  Cu13  1  0.42226977  0.92126721  0.46810143  1
  Cu  Cu14  1  0.92129103  0.42224563  0.46810054  1
  Cu  Cu15  1  0.92197022  0.92194725  0.46792544  1
  Cu  Cu16  1  0.39613680  0.39614452  0.62131245  1
  Cu  Cu17  1  0.39612694  0.89689323  0.62130394  1
  Cu  Cu18  1  0.89688306  0.39613688  0.62130414  1
  Cu  Cu19  1  0.89621630  0.89622247  0.62220479  1
  Cu  Cu20  1  0.23478343  0.23482780  0.59062501  1
  Cu  Cu21  1  0.23419917  0.73480407  0.59181866  1
  Cu  Cu22  1  0.73476309  0.23423952  0.59181856  1
  Cu  Cu23  1  0.73474527  0.73478883  0.59181569  1
  Se  Se24  1  0.43749700  0.43750300  0.37500000  1
  Se  Se25  1  0.43749700  0.93750300  0.37500000  1
  Se  Se26  1  0.93749700  0.43750300  0.37500000  1
  Se  Se27  1  0.93749700  0.93750300  0.37500000  1
  Se  Se28  1  0.24998449  0.24994375  0.50044753  1
  Se  Se29  1  0.24942010  0.74986848  0.50162671  1
  Se  Se30  1  0.74991285  0.24937587  0.50162677  1
  Se  Se31  1  0.74986900  0.74982436  0.50162234  1
  Se  Se32  1  0.05949034  0.05946814  0.64397565  1
  Se  Se33  1  0.05950029  0.55889431  0.64398470  1
  Se  Se34  1  0.55891964  0.05947565  0.64398422  1
  Se  Se35  1  0.55932801  0.55930491  0.64389276  1
