# generated using pymatgen
data_MoS2
_symmetry_space_group_name_H-M   'P 1'
_cell_length_a   6.31973600
_cell_length_b   12.46268000
_cell_length_c   24.68128287
_cell_angle_alpha   90.00000000
_cell_angle_beta   93.66151225
_cell_angle_gamma   90.00000000
_symmetry_Int_Tables_number   1
_chemical_formula_structural   MoS2
_chemical_formula_sum   'Mo12 S24'
_cell_volume   1939.95071504
_cell_formula_units_Z   12
loop_
 _symmetry_equiv_pos_site_id
 _symmetry_equiv_pos_as_xyz
  1  'x, y, z'
loop_
 _atom_site_type_symbol
 _atom_site_label
 _atom_site_symmetry_multiplicity
 _atom_site_fract_x
 _atom_site_fract_y
 _atom_site_fract_z
 _atom_site_occupancy
  Mo  Mo0  1  0.34212400  0.25000000  0.37044000  1
  Mo  Mo1  1  0.84212400  0.25000000  0.37044000  1
  Mo  Mo2  1  0.10232000  0.75000000  0.40733800  1
  Mo  Mo3  1  0.60232000  0.75000000  0.40733800  1
  Mo  Mo4  1  0.11979865  0.24999812  0.48113582  1
  Mo  Mo5  1  0.61979872  0.24999812  0.48113581  1
  Mo  Mo6  1  0.38067679  0.74999921  0.52065576  1
  Mo  Mo7  1  0.88067689  0.74999920  0.52065578  1
  Mo  Mo8  1  0.39797946  0.24999749  0.59373782  1
  Mo  Mo9  1  0.89797971  0.24999749  0.59373784  1
  Mo  Mo10  1  0.15723142  0.74999048  0.62659255  1
  Mo  Mo11  1  0.65723065  0.74999048  0.62659265  1
  S  S12  1  0.10138600  0.37552900  0.40747300  1
  S  S13  1  0.60138600  0.37552900  0.40747300  1
  S  S14  1  0.34305100  0.87552500  0.37029900  1
  S  S15  1  0.84305100  0.87552500  0.37029900  1
  S  S16  1  0.10138600  0.12447100  0.40747300  1
  S  S17  1  0.60138600  0.12447100  0.40747300  1
  S  S18  1  0.34305100  0.62447500  0.37029900  1
  S  S19  1  0.84305100  0.62447500  0.37029900  1
  S  S20  1  0.37928579  0.37470936  0.51909103  1
  S  S21  1  0.87928577  0.37470940  0.51909102  1
  S  S22  1  0.12103525  0.87405475  0.48211638  1
  S  S23  1  0.62103533  0.87405482  0.48211631  1
  S  S24  1  0.37928585  0.12528909  0.51909216  1
  S  S25  1  0.87928582  0.12528904  0.51909215  1
  S  S26  1  0.12103499  0.62594314  0.48211643  1
  S  S27  1  0.62103508  0.62594307  0.48211637  1
  S  S28  1  0.15736592  0.37348846  0.63133597  1
  S  S29  1  0.65736596  0.37348842  0.63133591  1
  S  S30  1  0.39928805  0.87712933  0.59498529  1
  S  S31  1  0.89928900  0.87712922  0.59498542  1
  S  S32  1  0.15736517  0.12650285  0.63133681  1
  S  S33  1  0.65736519  0.12650290  0.63133675  1
  S  S34  1  0.39928701  0.62285721  0.59498295  1
  S  S35  1  0.89928797  0.62285732  0.59498308  1
