# generated using pymatgen
data_Ir3O5
_symmetry_space_group_name_H-M   'P 1'
_cell_length_a   6.34574200
_cell_length_b   6.38387200
_cell_length_c   25.53556900
_cell_angle_alpha   90.00000000
_cell_angle_beta   90.00000000
_cell_angle_gamma   90.00000000
_symmetry_Int_Tables_number   1
_chemical_formula_structural   Ir3O5
_chemical_formula_sum   'Ir12 O20'
_cell_volume   1034.45623375
_cell_formula_units_Z   4
loop_
 _symmetry_equiv_pos_site_id
 _symmetry_equiv_pos_as_xyz
  1  'x, y, z'
loop_
 _atom_site_type_symbol
 _atom_site_label
 _atom_site_symmetry_multiplicity
 _atom_site_fract_x
 _atom_site_fract_y
 _atom_site_fract_z
 _atom_site_occupancy
  Ir  Ir0  1  0.25000000  0.00000000  0.37500000  1
  Ir  Ir1  1  0.75000000  0.00000000  0.37500000  1
  Ir  Ir2  1  0.00000000  0.50000000  0.37500100  1
  Ir  Ir3  1  0.50000000  0.50000000  0.37500100  1
  Ir  Ir4  1  0.24999427  0.50000302  0.50037155  1
  Ir  Ir5  1  0.74999432  0.50000302  0.50037155  1
  Ir  Ir6  1  0.99999607  0.00000265  0.50023261  1
  Ir  Ir7  1  0.49999612  0.00000271  0.50023261  1
  Ir  Ir8  1  0.24999875  0.00003533  0.62405487  1
  Ir  Ir9  1  0.74999872  0.00003532  0.62405485  1
  Ir  Ir10  1  0.99999477  0.50003539  0.62575805  1
  Ir  Ir11  1  0.49999476  0.50003541  0.62575805  1
  O  O12  1  0.25000000  0.69160400  0.37500200  1
  O  O13  1  0.75000000  0.69160400  0.37500200  1
  O  O14  1  0.25000000  0.30839600  0.37500200  1
  O  O15  1  0.75000000  0.30839600  0.37500200  1
  O  O16  1  0.00000000  0.50000000  0.45209900  1
  O  O17  1  0.50000000  0.50000000  0.45209900  1
  O  O18  1  0.24999583  0.19176179  0.50063589  1
  O  O19  1  0.74999576  0.19176179  0.50063590  1
  O  O20  1  0.00000000  0.00000000  0.42290400  1
  O  O21  1  0.50000000  0.00000000  0.42290400  1
  O  O22  1  0.24999547  0.80824169  0.50063634  1
  O  O23  1  0.74999547  0.80824168  0.50063634  1
  O  O24  1  0.00000042  0.00000189  0.57856531  1
  O  O25  1  0.50000044  0.00000189  0.57856531  1
  O  O26  1  0.24999544  0.69402785  0.63079660  1
  O  O27  1  0.74999543  0.69402785  0.63079660  1
  O  O28  1  0.99998943  0.49996777  0.54881939  1
  O  O29  1  0.49998943  0.49996778  0.54881941  1
  O  O30  1  0.24999490  0.30603757  0.63079384  1
  O  O31  1  0.74999490  0.30603755  0.63079384  1
