# generated using pymatgen
data_MoSe2
_symmetry_space_group_name_H-M   'P 1'
_cell_length_a   6.57932100
_cell_length_b   13.15865201
_cell_length_c   25.69278231
_cell_angle_alpha   90.00141744
_cell_angle_beta   86.32845510
_cell_angle_gamma   89.99834975
_symmetry_Int_Tables_number   1
_chemical_formula_structural   MoSe2
_chemical_formula_sum   'Mo12 Se24'
_cell_volume   2219.78712514
_cell_formula_units_Z   12
loop_
 _symmetry_equiv_pos_site_id
 _symmetry_equiv_pos_as_xyz
  1  'x, y, z'
loop_
 _atom_site_type_symbol
 _atom_site_label
 _atom_site_symmetry_multiplicity
 _atom_site_fract_x
 _atom_site_fract_y
 _atom_site_fract_z
 _atom_site_occupancy
  Mo  Mo0  1  0.40730700  0.75010700  0.37035000  1
  Mo  Mo1  1  0.90730700  0.75010700  0.37035000  1
  Mo  Mo2  1  0.14824900  0.24988800  0.40742800  1
  Mo  Mo3  1  0.64824900  0.24988800  0.40742800  1
  Mo  Mo4  1  0.12931355  0.75007390  0.48147664  1
  Mo  Mo5  1  0.62931528  0.75007387  0.48146868  1
  Mo  Mo6  1  0.36902063  0.24996747  0.52476647  1
  Mo  Mo7  1  0.86920656  0.24996744  0.52476656  1
  Mo  Mo8  1  0.35133841  0.75004345  0.59439296  1
  Mo  Mo9  1  0.85144921  0.75004353  0.59439301  1
  Mo  Mo10  1  0.09528428  0.25001437  0.61897026  1
  Mo  Mo11  1  0.59528158  0.25001423  0.61897755  1
  Se  Se12  1  0.14805500  0.62304600  0.40738500  1
  Se  Se13  1  0.64805500  0.62304600  0.40738500  1
  Se  Se14  1  0.40751700  0.12282800  0.37038900  1
  Se  Se15  1  0.90751700  0.12282800  0.37038900  1
  Se  Se16  1  0.14804000  0.87717700  0.40738900  1
  Se  Se17  1  0.64804000  0.87717700  0.40738900  1
  Se  Se18  1  0.40750200  0.37696000  0.37039300  1
  Se  Se19  1  0.90750200  0.37696000  0.37039300  1
  Se  Se20  1  0.36983936  0.62361657  0.51967731  1
  Se  Se21  1  0.86980818  0.62361676  0.51967733  1
  Se  Se22  1  0.12940983  0.12581585  0.48346771  1
  Se  Se23  1  0.62940413  0.12587414  0.48349090  1
  Se  Se24  1  0.36981865  0.87650103  0.51969247  1
  Se  Se25  1  0.86978759  0.87650093  0.51969238  1
  Se  Se26  1  0.12940388  0.37407036  0.48342997  1
  Se  Se27  1  0.62939815  0.37401212  0.48345316  1
  Se  Se28  1  0.09152400  0.62646351  0.63384875  1
  Se  Se29  1  0.59152182  0.62652531  0.63385757  1
  Se  Se30  1  0.35089592  0.11232058  0.59689227  1
  Se  Se31  1  0.85083207  0.11232077  0.59689227  1
  Se  Se32  1  0.09150134  0.87362139  0.63385316  1
  Se  Se33  1  0.59149921  0.87355977  0.63386192  1
  Se  Se34  1  0.35088958  0.38768193  0.59685274  1
  Se  Se35  1  0.85082563  0.38768174  0.59685276  1
