# generated using pymatgen
data_W
_symmetry_space_group_name_H-M   'P 1'
_cell_length_a   8.18352602
_cell_length_b   8.18352418
_cell_length_c   22.27285200
_cell_angle_alpha   89.99630328
_cell_angle_beta   89.99630328
_cell_angle_gamma   109.47270263
_symmetry_Int_Tables_number   1
_chemical_formula_structural   W
_chemical_formula_sum   W27
_cell_volume   1406.29500171
_cell_formula_units_Z   27
loop_
 _symmetry_equiv_pos_site_id
 _symmetry_equiv_pos_as_xyz
  1  'x, y, z'
loop_
 _atom_site_type_symbol
 _atom_site_label
 _atom_site_symmetry_multiplicity
 _atom_site_fract_x
 _atom_site_fract_y
 _atom_site_fract_z
 _atom_site_occupancy
  W  W0  1  0.99994054  0.33327380  0.59704030  1
  W  W1  1  0.99994067  0.66661080  0.59704016  1
  W  W2  1  0.99994091  0.99994271  0.59704232  1
  W  W3  1  0.33327661  0.33327429  0.59703916  1
  W  W4  1  0.33327730  0.66661102  0.59703862  1
  W  W5  1  0.33327672  0.99994331  0.59704075  1
  W  W6  1  0.66661022  0.33327473  0.59704146  1
  W  W7  1  0.66661090  0.66661104  0.59704125  1
  W  W8  1  0.66661076  0.99994300  0.59704328  1
  W  W9  1  0.16663909  0.16663884  0.49852916  1
  W  W10  1  0.16663910  0.49997326  0.49852842  1
  W  W11  1  0.16663904  0.83330812  0.49852917  1
  W  W12  1  0.49997512  0.16663880  0.49852977  1
  W  W13  1  0.49997499  0.49997308  0.49852878  1
  W  W14  1  0.49997495  0.83330812  0.49852960  1
  W  W15  1  0.83330593  0.16663871  0.49853041  1
  W  W16  1  0.83330594  0.49997311  0.49852941  1
  W  W17  1  0.83330597  0.83330812  0.49853019  1
  W  W18  1  0.00000000  0.33333300  0.40000000  1
  W  W19  1  0.00000000  0.66666700  0.40000000  1
  W  W20  1  0.00000000  0.00000000  0.40000000  1
  W  W21  1  0.33333300  0.33333300  0.40000000  1
  W  W22  1  0.33333300  0.66666700  0.40000000  1
  W  W23  1  0.33333300  0.00000000  0.40000000  1
  W  W24  1  0.66666700  0.33333300  0.40000000  1
  W  W25  1  0.66666700  0.66666700  0.40000000  1
  W  W26  1  0.66666700  0.00000000  0.40000000  1
