# generated using pymatgen
data_Co
_symmetry_space_group_name_H-M   'P 1'
_cell_length_a   7.20020400
_cell_length_b   7.22369791
_cell_length_c   21.95056060
_cell_angle_alpha   90.70782154
_cell_angle_beta   92.74453361
_cell_angle_gamma   114.11633735
_symmetry_Int_Tables_number   1
_chemical_formula_structural   Co
_chemical_formula_sum   Co27
_cell_volume   1040.21162622
_cell_formula_units_Z   27
loop_
 _symmetry_equiv_pos_site_id
 _symmetry_equiv_pos_as_xyz
  1  'x, y, z'
loop_
 _atom_site_type_symbol
 _atom_site_label
 _atom_site_symmetry_multiplicity
 _atom_site_fract_x
 _atom_site_fract_y
 _atom_site_fract_z
 _atom_site_occupancy
  Co  Co0  1  0.28787700  0.18181700  0.40909100  1
  Co  Co1  1  0.28787700  0.51515000  0.40909100  1
  Co  Co2  1  0.28787700  0.84848400  0.40909100  1
  Co  Co3  1  0.62121100  0.18181700  0.40909100  1
  Co  Co4  1  0.62121100  0.51515000  0.40909100  1
  Co  Co5  1  0.62121100  0.84848400  0.40909100  1
  Co  Co6  1  0.95454400  0.18181700  0.40909100  1
  Co  Co7  1  0.95454400  0.51515000  0.40909100  1
  Co  Co8  1  0.95454400  0.84848400  0.40909100  1
  Co  Co9  1  0.18300908  0.97637815  0.49674578  1
  Co  Co10  1  0.18641940  0.31128766  0.49695663  1
  Co  Co11  1  0.18557489  0.64400936  0.49706603  1
  Co  Co12  1  0.51663525  0.98014444  0.49727831  1
  Co  Co13  1  0.51773153  0.31328608  0.49726050  1
  Co  Co14  1  0.51903932  0.64822389  0.49675855  1
  Co  Co15  1  0.85001658  0.97958049  0.49731871  1
  Co  Co16  1  0.85485755  0.31408786  0.49748142  1
  Co  Co17  1  0.85300956  0.64610575  0.49758355  1
  Co  Co18  1  0.07546496  0.10101952  0.59167848  1
  Co  Co19  1  0.07960781  0.43749628  0.59202641  1
  Co  Co20  1  0.07838901  0.77214655  0.59178654  1
  Co  Co21  1  0.40522650  0.12481907  0.59123488  1
  Co  Co22  1  0.40745195  0.46190629  0.59162519  1
  Co  Co23  1  0.41449273  0.79379828  0.59185087  1
  Co  Co24  1  0.74018227  0.12065507  0.58643179  1
  Co  Co25  1  0.73999513  0.44460771  0.58661139  1
  Co  Co26  1  0.74930338  0.78560633  0.59129612  1
