# generated using pymatgen
data_Mo
_symmetry_space_group_name_H-M   'P 1'
_cell_length_a   8.13431400
_cell_length_b   8.13432797
_cell_length_c   22.13894100
_cell_angle_alpha   90.00084524
_cell_angle_beta   90.00084525
_cell_angle_gamma   109.47202259
_symmetry_Int_Tables_number   1
_chemical_formula_structural   Mo
_chemical_formula_sum   Mo27
_cell_volume   1381.08702123
_cell_formula_units_Z   27
loop_
 _symmetry_equiv_pos_site_id
 _symmetry_equiv_pos_as_xyz
  1  'x, y, z'
loop_
 _atom_site_type_symbol
 _atom_site_label
 _atom_site_symmetry_multiplicity
 _atom_site_fract_x
 _atom_site_fract_y
 _atom_site_fract_z
 _atom_site_occupancy
  Mo  Mo0  1  0.99977102  0.33310519  0.59460253  1
  Mo  Mo1  1  0.99976979  0.66644110  0.59460471  1
  Mo  Mo2  1  0.99976909  0.99976609  0.59460382  1
  Mo  Mo3  1  0.33310789  0.33310648  0.59460264  1
  Mo  Mo4  1  0.33310843  0.66644075  0.59460484  1
  Mo  Mo5  1  0.33310496  0.99976839  0.59460406  1
  Mo  Mo6  1  0.66643732  0.33310698  0.59460361  1
  Mo  Mo7  1  0.66643889  0.66644021  0.59460568  1
  Mo  Mo8  1  0.66643711  0.99976622  0.59460491  1
  Mo  Mo9  1  0.16658182  0.16658027  0.49737243  1
  Mo  Mo10  1  0.16658259  0.49991559  0.49737260  1
  Mo  Mo11  1  0.16658097  0.83324816  0.49737310  1
  Mo  Mo12  1  0.49991432  0.16658101  0.49737266  1
  Mo  Mo13  1  0.49991567  0.49991570  0.49737309  1
  Mo  Mo14  1  0.49991565  0.83324679  0.49737351  1
  Mo  Mo15  1  0.83324783  0.16657966  0.49737272  1
  Mo  Mo16  1  0.83324710  0.49991642  0.49737298  1
  Mo  Mo17  1  0.83324764  0.83324694  0.49737365  1
  Mo  Mo18  1  0.00000000  0.33333300  0.40000000  1
  Mo  Mo19  1  0.00000000  0.66666600  0.40000000  1
  Mo  Mo20  1  1.00000000  1.00000000  0.40000000  1
  Mo  Mo21  1  0.33333300  0.33333300  0.40000000  1
  Mo  Mo22  1  0.33333300  0.66666600  0.40000000  1
  Mo  Mo23  1  0.33333300  1.00000000  0.40000000  1
  Mo  Mo24  1  0.66666700  0.33333300  0.40000000  1
  Mo  Mo25  1  0.66666700  0.66666600  0.40000000  1
  Mo  Mo26  1  0.66666700  1.00000000  0.40000000  1
