# generated using pymatgen
data_Sn
_symmetry_space_group_name_H-M   'P 1'
_cell_length_a   9.43221838
_cell_length_b   11.60326658
_cell_length_c   30.60418900
_cell_angle_alpha   90.03914768
_cell_angle_beta   90.23654075
_cell_angle_gamma   88.57775690
_symmetry_Int_Tables_number   1
_chemical_formula_structural   Sn
_chemical_formula_sum   Sn36
_cell_volume   3348.40054919
_cell_formula_units_Z   36
loop_
 _symmetry_equiv_pos_site_id
 _symmetry_equiv_pos_as_xyz
  1  'x, y, z'
loop_
 _atom_site_type_symbol
 _atom_site_label
 _atom_site_symmetry_multiplicity
 _atom_site_fract_x
 _atom_site_fract_y
 _atom_site_fract_z
 _atom_site_occupancy
  Sn  Sn0  1  0.21893262  0.31167973  0.55006703  1
  Sn  Sn1  1  0.21891107  0.81174453  0.55010089  1
  Sn  Sn2  1  0.55226928  0.31167968  0.55007001  1
  Sn  Sn3  1  0.55224749  0.81174524  0.55010396  1
  Sn  Sn4  1  0.88560507  0.31167942  0.55007429  1
  Sn  Sn5  1  0.88558244  0.81174474  0.55010879  1
  Sn  Sn6  1  0.02957659  0.06036477  0.55003748  1
  Sn  Sn7  1  0.02955642  0.56042377  0.55000106  1
  Sn  Sn8  1  0.36290558  0.06036457  0.55003264  1
  Sn  Sn9  1  0.36288562  0.56042375  0.54999537  1
  Sn  Sn10  1  0.69624392  0.06036366  0.55003984  1
  Sn  Sn11  1  0.69622402  0.56042417  0.55000276  1
  Sn  Sn12  1  0.23019251  0.31338295  0.45003653  1
  Sn  Sn13  1  0.23024803  0.81338574  0.45005872  1
  Sn  Sn14  1  0.56352191  0.31338297  0.45003636  1
  Sn  Sn15  1  0.56357535  0.81338569  0.45005847  1
  Sn  Sn16  1  0.89686049  0.31338204  0.45004151  1
  Sn  Sn17  1  0.89691471  0.81338657  0.45006357  1
  Sn  Sn18  1  0.02119127  0.06220201  0.45000235  1
  Sn  Sn19  1  0.02123329  0.56220853  0.44998112  1
  Sn  Sn20  1  0.35452110  0.06220208  0.44999845  1
  Sn  Sn21  1  0.35456388  0.56220956  0.44997702  1
  Sn  Sn22  1  0.68785230  0.06220098  0.45000333  1
  Sn  Sn23  1  0.68789459  0.56220934  0.44998204  1
  Sn  Sn24  1  0.21579100  0.31083800  0.34996900  1
  Sn  Sn25  1  0.21579100  0.81083800  0.34996900  1
  Sn  Sn26  1  0.54912400  0.31083800  0.34996900  1
  Sn  Sn27  1  0.54912400  0.81083800  0.34996900  1
  Sn  Sn28  1  0.88245700  0.31083800  0.34996900  1
  Sn  Sn29  1  0.88245700  0.81083800  0.34996900  1
  Sn  Sn30  1  0.03172900  0.06063000  0.35002900  1
  Sn  Sn31  1  0.03172900  0.56063000  0.35002900  1
  Sn  Sn32  1  0.36506200  0.06063000  0.35002900  1
  Sn  Sn33  1  0.36506200  0.56063000  0.35002900  1
  Sn  Sn34  1  0.69839600  0.06063000  0.35002900  1
  Sn  Sn35  1  0.69839600  0.56063000  0.35002900  1
