# generated using pymatgen
data_PtAu26
_symmetry_space_group_name_H-M   'P 1'
_cell_length_a   8.57606266
_cell_length_b   8.57606266
_cell_length_c   23.65109797
_cell_angle_alpha   88.12641697
_cell_angle_beta   88.12641697
_cell_angle_gamma   63.40130658
_symmetry_Int_Tables_number   1
_chemical_formula_structural   PtAu26
_chemical_formula_sum   'Pt1 Au26'
_cell_volume   1554.26011481
_cell_formula_units_Z   1
loop_
 _symmetry_equiv_pos_site_id
 _symmetry_equiv_pos_as_xyz
  1  'x, y, z'
loop_
 _atom_site_type_symbol
 _atom_site_label
 _atom_site_symmetry_multiplicity
 _atom_site_fract_x
 _atom_site_fract_y
 _atom_site_fract_z
 _atom_site_occupancy
  Au  Au0  1  0.20068675  0.20068661  0.60617287  1
  Au  Au1  1  0.20596840  0.53322905  0.60610747  1
  Au  Au2  1  0.20961870  0.86246437  0.60654126  1
  Au  Au3  1  0.53322913  0.20596838  0.60610747  1
  Au  Au4  1  0.53802170  0.86703147  0.60615322  1
  Au  Au5  1  0.86246444  0.20961851  0.60654128  1
  Au  Au6  1  0.86703170  0.53802148  0.60615321  1
  Au  Au7  1  0.87117127  0.87117115  0.60633535  1
  Au  Au8  1  0.00193358  0.33289722  0.50339347  1
  Au  Au9  1  0.99933129  0.66679759  0.50393655  1
  Au  Au10  1  0.00027767  0.00027762  0.50464972  1
  Au  Au11  1  0.33371624  0.33371616  0.50300801  1
  Au  Au12  1  0.33073899  0.66937384  0.50160756  1
  Au  Au13  1  0.33289732  0.00193349  0.50339347  1
  Au  Au14  1  0.66937384  0.33073890  0.50160755  1
  Au  Au15  1  0.66672526  0.66672520  0.50269841  1
  Au  Au16  1  0.66679763  0.99933124  0.50393655  1
  Au  Au17  1  0.13333300  0.13333300  0.40000000  1
  Au  Au18  1  0.13333300  0.46666600  0.40000000  1
  Au  Au19  1  0.13333300  0.80000000  0.40000000  1
  Au  Au20  1  0.46666600  0.13333300  0.40000000  1
  Au  Au21  1  0.46666700  0.46666700  0.40000000  1
  Au  Au22  1  0.46666700  0.80000000  0.40000000  1
  Au  Au23  1  0.80000000  0.13333300  0.40000000  1
  Au  Au24  1  0.80000000  0.46666700  0.40000000  1
  Au  Au25  1  0.80000000  0.80000000  0.40000000  1
  Pt  Pt26  1  0.53672059  0.53672039  0.59671707  1
