# generated using pymatgen
data_Pt
_symmetry_space_group_name_H-M   'P 1'
_cell_length_a   8.30563200
_cell_length_b   8.30548099
_cell_length_c   22.66204900
_cell_angle_alpha   86.50247764
_cell_angle_beta   89.99826160
_cell_angle_gamma   119.99933191
_symmetry_Int_Tables_number   1
_chemical_formula_structural   Pt
_chemical_formula_sum   Pt27
_cell_volume   1350.48407360
_cell_formula_units_Z   27
loop_
 _symmetry_equiv_pos_site_id
 _symmetry_equiv_pos_as_xyz
  1  'x, y, z'
loop_
 _atom_site_type_symbol
 _atom_site_label
 _atom_site_symmetry_multiplicity
 _atom_site_fract_x
 _atom_site_fract_y
 _atom_site_fract_z
 _atom_site_occupancy
  Pt  Pt0  1  0.06666700  0.13333400  0.40000000  1
  Pt  Pt1  1  0.06666700  0.46666700  0.40000000  1
  Pt  Pt2  1  0.06666700  0.80000100  0.40000000  1
  Pt  Pt3  1  0.40000000  0.13333400  0.40000000  1
  Pt  Pt4  1  0.40000000  0.46666700  0.40000000  1
  Pt  Pt5  1  0.40000000  0.80000100  0.40000000  1
  Pt  Pt6  1  0.73333400  0.13333400  0.40000000  1
  Pt  Pt7  1  0.73333400  0.46666700  0.40000000  1
  Pt  Pt8  1  0.73333400  0.80000100  0.40000000  1
  Pt  Pt9  1  0.16641827  0.99949839  0.50244328  1
  Pt  Pt10  1  0.16641939  0.33283173  0.50244153  1
  Pt  Pt11  1  0.16641375  0.66616023  0.50244505  1
  Pt  Pt12  1  0.49974292  0.99949510  0.50244173  1
  Pt  Pt13  1  0.49974384  0.33282839  0.50243853  1
  Pt  Pt14  1  0.49974123  0.66615520  0.50244010  1
  Pt  Pt15  1  0.83307963  0.99949593  0.50244199  1
  Pt  Pt16  1  0.83307944  0.33283125  0.50244039  1
  Pt  Pt17  1  0.83307778  0.66615764  0.50244134  1
  Pt  Pt18  1  0.26617575  0.19901260  0.60490960  1
  Pt  Pt19  1  0.26617151  0.53233940  0.60491202  1
  Pt  Pt20  1  0.26617373  0.86567752  0.60491477  1
  Pt  Pt21  1  0.59950591  0.19901124  0.60490516  1
  Pt  Pt22  1  0.59950464  0.53234135  0.60490476  1
  Pt  Pt23  1  0.59950793  0.86567753  0.60490739  1
  Pt  Pt24  1  0.93283757  0.19900996  0.60490772  1
  Pt  Pt25  1  0.93283608  0.53233902  0.60491185  1
  Pt  Pt26  1  0.93283551  0.86567505  0.60491175  1
