# generated using pymatgen
data_Mo3S4
_symmetry_space_group_name_H-M   'P 1'
_cell_length_a   6.40582443
_cell_length_b   6.40502189
_cell_length_c   27.80788600
_cell_angle_alpha   91.26713631
_cell_angle_beta   91.36148131
_cell_angle_gamma   91.33958978
_symmetry_Int_Tables_number   1
_chemical_formula_structural   Mo3S4
_chemical_formula_sum   'Mo12 S16'
_cell_volume   1140.01494538
_cell_formula_units_Z   4
loop_
 _symmetry_equiv_pos_site_id
 _symmetry_equiv_pos_as_xyz
  1  'x, y, z'
loop_
 _atom_site_type_symbol
 _atom_site_label
 _atom_site_symmetry_multiplicity
 _atom_site_fract_x
 _atom_site_fract_y
 _atom_site_fract_z
 _atom_site_occupancy
  Mo  Mo0  1  0.21053600  0.55052600  0.34322700  1
  Mo  Mo1  1  0.21208439  0.55440467  0.57346616  1
  Mo  Mo2  1  0.78897916  0.44855646  0.38686621  1
  Mo  Mo3  1  0.78526893  0.44546003  0.61769894  1
  Mo  Mo4  1  0.40840000  0.21345974  0.37659213  1
  Mo  Mo5  1  0.40925452  0.21232036  0.60655905  1
  Mo  Mo6  1  0.59470900  0.78943200  0.35357800  1
  Mo  Mo7  1  0.59208850  0.79058795  0.58338846  1
  Mo  Mo8  1  0.55045000  0.40548900  0.29849800  1
  Mo  Mo9  1  0.55023862  0.40787818  0.52818418  1
  Mo  Mo10  1  0.45180403  0.59572773  0.43185582  1
  Mo  Mo11  1  0.45580927  0.58208919  0.65779527  1
  S  S12  1  0.13353908  0.38691425  0.41988043  1
  S  S13  1  0.13254912  0.38374694  0.64920611  1
  S  S14  1  0.86792400  0.61363500  0.31056000  1
  S  S15  1  0.86769317  0.61499253  0.54104881  1
  S  S16  1  0.73733500  0.13203700  0.33909000  1
  S  S17  1  0.73935229  0.13260365  0.56881364  1
  S  S18  1  0.26284404  0.86926360  0.39149730  1
  S  S19  1  0.26686570  0.86951660  0.62424507  1
  S  S20  1  0.38668300  0.73747600  0.28032400  1
  S  S21  1  0.38567759  0.74175108  0.51056447  1
  S  S22  1  0.61474716  0.26262836  0.44982856  1
  S  S23  1  0.61258188  0.26248643  0.68259101  1
  S  S24  1  0.21767900  0.21800500  0.30009800  1
  S  S25  1  0.21608686  0.21879510  0.53072897  1
  S  S26  1  0.78588399  0.78176778  0.43042167  1
  S  S27  1  0.77855826  0.77991939  0.66074204  1
