# generated using pymatgen
data_Sn
_symmetry_space_group_name_H-M   'P 1'
_cell_length_a   9.43221838
_cell_length_b   11.60326658
_cell_length_c   30.60418900
_cell_angle_alpha   90.03914768
_cell_angle_beta   90.23654075
_cell_angle_gamma   88.57775690
_symmetry_Int_Tables_number   1
_chemical_formula_structural   Sn
_chemical_formula_sum   Sn36
_cell_volume   3348.40054919
_cell_formula_units_Z   36
loop_
 _symmetry_equiv_pos_site_id
 _symmetry_equiv_pos_as_xyz
  1  'x, y, z'
loop_
 _atom_site_type_symbol
 _atom_site_label
 _atom_site_symmetry_multiplicity
 _atom_site_fract_x
 _atom_site_fract_y
 _atom_site_fract_z
 _atom_site_occupancy
  Sn  Sn0  1  0.21745042  0.31164215  0.54938193  1
  Sn  Sn1  1  0.21744187  0.81165829  0.54938046  1
  Sn  Sn2  1  0.55077022  0.31164011  0.54938369  1
  Sn  Sn3  1  0.55078967  0.81165749  0.54938653  1
  Sn  Sn4  1  0.88411471  0.31164095  0.54937499  1
  Sn  Sn5  1  0.88411008  0.81165910  0.54938822  1
  Sn  Sn6  1  0.03100336  0.06038004  0.54937029  1
  Sn  Sn7  1  0.03100779  0.56036955  0.54937198  1
  Sn  Sn8  1  0.36433854  0.06038689  0.54937240  1
  Sn  Sn9  1  0.36433924  0.56036311  0.54937393  1
  Sn  Sn10  1  0.69767020  0.06037751  0.54937543  1
  Sn  Sn11  1  0.69767186  0.56037217  0.54937422  1
  Sn  Sn12  1  0.22932087  0.31386729  0.44968869  1
  Sn  Sn13  1  0.22932803  0.81390647  0.44969017  1
  Sn  Sn14  1  0.56265910  0.31386604  0.44969004  1
  Sn  Sn15  1  0.56266294  0.81390509  0.44969198  1
  Sn  Sn16  1  0.89599326  0.31386822  0.44968946  1
  Sn  Sn17  1  0.89600015  0.81390747  0.44969040  1
  Sn  Sn18  1  0.02219840  0.06229201  0.44965013  1
  Sn  Sn19  1  0.02220016  0.56231446  0.44965707  1
  Sn  Sn20  1  0.35552666  0.06228962  0.44965101  1
  Sn  Sn21  1  0.35552926  0.56231600  0.44965704  1
  Sn  Sn22  1  0.68886515  0.06229102  0.44965140  1
  Sn  Sn23  1  0.68886647  0.56231427  0.44965731  1
  Sn  Sn24  1  0.21579100  0.31083800  0.34996900  1
  Sn  Sn25  1  0.21579100  0.81083800  0.34996900  1
  Sn  Sn26  1  0.54912400  0.31083800  0.34996900  1
  Sn  Sn27  1  0.54912400  0.81083800  0.34996900  1
  Sn  Sn28  1  0.88245700  0.31083800  0.34996900  1
  Sn  Sn29  1  0.88245700  0.81083800  0.34996900  1
  Sn  Sn30  1  0.03172900  0.06063000  0.35002900  1
  Sn  Sn31  1  0.03172900  0.56063000  0.35002900  1
  Sn  Sn32  1  0.36506200  0.06063000  0.35002900  1
  Sn  Sn33  1  0.36506200  0.56063000  0.35002900  1
  Sn  Sn34  1  0.69839600  0.06063000  0.35002900  1
  Sn  Sn35  1  0.69839600  0.56063000  0.35002900  1
