# generated using pymatgen
data_Ni
_symmetry_space_group_name_H-M   'P 1'
_cell_length_a   7.33150949
_cell_length_b   7.33150889
_cell_length_c   21.99719400
_cell_angle_alpha   90.00513446
_cell_angle_beta   93.17934504
_cell_angle_gamma   119.99848735
_symmetry_Int_Tables_number   1
_chemical_formula_structural   Ni
_chemical_formula_sum   Ni27
_cell_volume   1021.87426739
_cell_formula_units_Z   27
loop_
 _symmetry_equiv_pos_site_id
 _symmetry_equiv_pos_as_xyz
  1  'x, y, z'
loop_
 _atom_site_type_symbol
 _atom_site_label
 _atom_site_symmetry_multiplicity
 _atom_site_fract_x
 _atom_site_fract_y
 _atom_site_fract_z
 _atom_site_occupancy
  Ni  Ni0  1  0.09090900  0.04545500  0.40909100  1
  Ni  Ni1  1  0.09090900  0.37878800  0.40909100  1
  Ni  Ni2  1  0.09090900  0.71212100  0.40909100  1
  Ni  Ni3  1  0.42424200  0.04545500  0.40909100  1
  Ni  Ni4  1  0.42424200  0.37878800  0.40909100  1
  Ni  Ni5  1  0.42424200  0.71212100  0.40909100  1
  Ni  Ni6  1  0.75757600  0.04545500  0.40909100  1
  Ni  Ni7  1  0.75757600  0.37878800  0.40909100  1
  Ni  Ni8  1  0.75757600  0.71212100  0.40909100  1
  Ni  Ni9  1  0.33348139  0.16679746  0.50082474  1
  Ni  Ni10  1  0.33351914  0.50003505  0.50086300  1
  Ni  Ni11  1  0.33349519  0.83345343  0.50082665  1
  Ni  Ni12  1  0.66687831  0.16680952  0.50087782  1
  Ni  Ni13  1  0.66687984  0.50005509  0.50088684  1
  Ni  Ni14  1  0.66688331  0.83337822  0.50078290  1
  Ni  Ni15  1  0.00019875  0.16679897  0.50088307  1
  Ni  Ni16  1  0.00003462  0.50001707  0.50019359  1
  Ni  Ni17  1  0.00016928  0.83342533  0.50087054  1
  Ni  Ni18  1  0.24261836  0.28794147  0.59218004  1
  Ni  Ni19  1  0.24232347  0.62123525  0.59202870  1
  Ni  Ni20  1  0.24265405  0.95466584  0.59216782  1
  Ni  Ni21  1  0.57600105  0.28796632  0.59216883  1
  Ni  Ni22  1  0.57613373  0.62146767  0.59213264  1
  Ni  Ni23  1  0.57609207  0.95464795  0.59211575  1
  Ni  Ni24  1  0.90940732  0.28826011  0.59205276  1
  Ni  Ni25  1  0.90942480  0.62121226  0.59205014  1
  Ni  Ni26  1  0.90926947  0.95462471  0.59214930  1
