# generated using pymatgen
data_Co
_symmetry_space_group_name_H-M   'P 1'
_cell_length_a   7.20020400
_cell_length_b   7.22369791
_cell_length_c   21.95056060
_cell_angle_alpha   90.70782154
_cell_angle_beta   92.74453361
_cell_angle_gamma   114.11633735
_symmetry_Int_Tables_number   1
_chemical_formula_structural   Co
_chemical_formula_sum   Co27
_cell_volume   1040.21162622
_cell_formula_units_Z   27
loop_
 _symmetry_equiv_pos_site_id
 _symmetry_equiv_pos_as_xyz
  1  'x, y, z'
loop_
 _atom_site_type_symbol
 _atom_site_label
 _atom_site_symmetry_multiplicity
 _atom_site_fract_x
 _atom_site_fract_y
 _atom_site_fract_z
 _atom_site_occupancy
  Co  Co0  1  0.28787700  0.18181700  0.40909100  1
  Co  Co1  1  0.28787700  0.51515000  0.40909100  1
  Co  Co2  1  0.28787700  0.84848400  0.40909100  1
  Co  Co3  1  0.62121100  0.18181700  0.40909100  1
  Co  Co4  1  0.62121100  0.51515000  0.40909100  1
  Co  Co5  1  0.62121100  0.84848400  0.40909100  1
  Co  Co6  1  0.95454400  0.18181700  0.40909100  1
  Co  Co7  1  0.95454400  0.51515000  0.40909100  1
  Co  Co8  1  0.95454400  0.84848400  0.40909100  1
  Co  Co9  1  0.18499358  0.98444224  0.50007425  1
  Co  Co10  1  0.18221629  0.31631307  0.49974972  1
  Co  Co11  1  0.18477141  0.65168457  0.49982272  1
  Co  Co12  1  0.51698093  0.98278708  0.50011710  1
  Co  Co13  1  0.51479723  0.31463378  0.49999619  1
  Co  Co14  1  0.51636419  0.64898720  0.49995785  1
  Co  Co15  1  0.85022582  0.98186990  0.50004736  1
  Co  Co16  1  0.84688289  0.31332493  0.49982746  1
  Co  Co17  1  0.84845473  0.64704410  0.49988241  1
  Co  Co18  1  0.07807049  0.11833326  0.59082171  1
  Co  Co19  1  0.07694343  0.45154849  0.59051910  1
  Co  Co20  1  0.07697005  0.78392561  0.59069020  1
  Co  Co21  1  0.41051506  0.11675003  0.59111745  1
  Co  Co22  1  0.40952169  0.45030788  0.59084265  1
  Co  Co23  1  0.40947061  0.78278168  0.59094232  1
  Co  Co24  1  0.74466510  0.11688172  0.59095237  1
  Co  Co25  1  0.74324690  0.45012017  0.59082267  1
  Co  Co26  1  0.74369586  0.78316105  0.59082716  1
