# generated using pymatgen
data_Cu
_symmetry_space_group_name_H-M   'P 1'
_cell_length_a   7.56931200
_cell_length_b   7.57163409
_cell_length_c   24.95416000
_cell_angle_alpha   89.99856981
_cell_angle_beta   89.99866020
_cell_angle_gamma   89.99125989
_symmetry_Int_Tables_number   1
_chemical_formula_structural   Cu
_chemical_formula_sum   Cu27
_cell_volume   1430.17431756
_cell_formula_units_Z   27
loop_
 _symmetry_equiv_pos_site_id
 _symmetry_equiv_pos_as_xyz
  1  'x, y, z'
loop_
 _atom_site_type_symbol
 _atom_site_label
 _atom_site_symmetry_multiplicity
 _atom_site_fract_x
 _atom_site_fract_y
 _atom_site_fract_z
 _atom_site_occupancy
  Cu  Cu0  1  0.99999863  0.99999771  0.53590027  1
  Cu  Cu1  1  0.99999845  0.33334355  0.53590029  1
  Cu  Cu2  1  0.99999840  0.66665245  0.53590008  1
  Cu  Cu3  1  0.33334417  0.99999779  0.53590054  1
  Cu  Cu4  1  0.33334103  0.33334014  0.53590001  1
  Cu  Cu5  1  0.33334114  0.66665575  0.53589954  1
  Cu  Cu6  1  0.66665291  0.99999773  0.53589998  1
  Cu  Cu7  1  0.66665618  0.33334049  0.53589938  1
  Cu  Cu8  1  0.66665614  0.66665548  0.53589897  1
  Cu  Cu9  1  0.00000100  0.00000000  0.39285700  1
  Cu  Cu10  1  0.00000100  0.33333300  0.39285700  1
  Cu  Cu11  1  0.00000100  0.66666700  0.39285700  1
  Cu  Cu12  1  0.33333400  0.00000000  0.39285700  1
  Cu  Cu13  1  0.33333400  0.33333300  0.39285700  1
  Cu  Cu14  1  0.33333400  0.66666700  0.39285700  1
  Cu  Cu15  1  0.66666700  0.00000000  0.39285700  1
  Cu  Cu16  1  0.66666700  0.33333300  0.39285700  1
  Cu  Cu17  1  0.66666700  0.66666700  0.39285700  1
  Cu  Cu18  1  0.16665954  0.16665859  0.46434678  1
  Cu  Cu19  1  0.16665589  0.49999975  0.46434643  1
  Cu  Cu20  1  0.16665949  0.83334075  0.46434715  1
  Cu  Cu21  1  0.50000032  0.16665495  0.46434653  1
  Cu  Cu22  1  0.50000016  0.49999957  0.46434622  1
  Cu  Cu23  1  0.50000032  0.83334457  0.46434679  1
  Cu  Cu24  1  0.83334142  0.16665857  0.46434714  1
  Cu  Cu25  1  0.83334524  0.49999976  0.46434668  1
  Cu  Cu26  1  0.83334147  0.83334076  0.46434750  1
