# generated using pymatgen
data_FeMo3S4
_symmetry_space_group_name_H-M   'P 1'
_cell_length_a   6.48394610
_cell_length_b   6.41202525
_cell_length_c   27.90841600
_cell_angle_alpha   93.69337570
_cell_angle_beta   94.75362703
_cell_angle_gamma   97.43854579
_symmetry_Int_Tables_number   1
_chemical_formula_structural   FeMo3S4
_chemical_formula_sum   'Fe4 Mo12 S16'
_cell_volume   1143.25638445
_cell_formula_units_Z   4
loop_
 _symmetry_equiv_pos_site_id
 _symmetry_equiv_pos_as_xyz
  1  'x, y, z'
loop_
 _atom_site_type_symbol
 _atom_site_label
 _atom_site_symmetry_multiplicity
 _atom_site_fract_x
 _atom_site_fract_y
 _atom_site_fract_z
 _atom_site_occupancy
  Fe  Fe0  1  0.93436904  0.15686064  0.46489331  1
  Fe  Fe1  1  0.85152957  0.10809454  0.65662348  1
  Fe  Fe2  1  0.06524100  0.84263700  0.26375600  1
  Fe  Fe3  1  0.05389799  0.83984514  0.49764932  1
  Mo  Mo4  1  0.22005653  0.53910138  0.34348865  1
  Mo  Mo5  1  0.20359283  0.53655752  0.57635306  1
  Mo  Mo6  1  0.78134900  0.45968164  0.38752321  1
  Mo  Mo7  1  0.76284167  0.45572244  0.61881743  1
  Mo  Mo8  1  0.40773790  0.21807844  0.37493246  1
  Mo  Mo9  1  0.38995000  0.21435704  0.60792837  1
  Mo  Mo10  1  0.59310005  0.78250426  0.35576049  1
  Mo  Mo11  1  0.57573941  0.77501216  0.58803873  1
  Mo  Mo12  1  0.54135300  0.40905600  0.30082200  1
  Mo  Mo13  1  0.52757551  0.40595904  0.53226032  1
  Mo  Mo14  1  0.45663214  0.59159159  0.43088959  1
  Mo  Mo15  1  0.44403604  0.58195106  0.66124895  1
  S  S16  1  0.13187451  0.36026461  0.41701139  1
  S  S17  1  0.11578105  0.36330565  0.65026421  1
  S  S18  1  0.86842500  0.63937200  0.31349000  1
  S  S19  1  0.85391983  0.63846829  0.54613764  1
  S  S20  1  0.72301900  0.14241800  0.33608800  1
  S  S21  1  0.70487530  0.13186900  0.56648245  1
  S  S22  1  0.27752740  0.85776631  0.39489292  1
  S  S23  1  0.26513373  0.85452030  0.62942349  1
  S  S24  1  0.38478400  0.73178900  0.28021200  1
  S  S25  1  0.37091284  0.72696738  0.51196675  1
  S  S26  1  0.61394409  0.26886003  0.45132833  1
  S  S27  1  0.59781328  0.27685055  0.68701793  1
  S  S28  1  0.20162900  0.19284800  0.29629700  1
  S  S29  1  0.18585687  0.19286103  0.52808909  1
  S  S30  1  0.79895733  0.80553076  0.43542613  1
  S  S31  1  0.78972219  0.77359153  0.67149011  1
