# generated using pymatgen
data_Ni26Mo
_symmetry_space_group_name_H-M   'P 1'
_cell_length_a   7.33150949
_cell_length_b   7.33150889
_cell_length_c   21.99719400
_cell_angle_alpha   90.00513446
_cell_angle_beta   93.17934504
_cell_angle_gamma   119.99848735
_symmetry_Int_Tables_number   1
_chemical_formula_structural   Ni26Mo
_chemical_formula_sum   'Ni26 Mo1'
_cell_volume   1021.87426739
_cell_formula_units_Z   1
loop_
 _symmetry_equiv_pos_site_id
 _symmetry_equiv_pos_as_xyz
  1  'x, y, z'
loop_
 _atom_site_type_symbol
 _atom_site_label
 _atom_site_symmetry_multiplicity
 _atom_site_fract_x
 _atom_site_fract_y
 _atom_site_fract_z
 _atom_site_occupancy
  Ni  Ni0  1  0.09090900  0.04545500  0.40909100  1
  Ni  Ni1  1  0.09090900  0.37878800  0.40909100  1
  Ni  Ni2  1  0.09090900  0.71212100  0.40909100  1
  Ni  Ni3  1  0.42424200  0.04545500  0.40909100  1
  Ni  Ni4  1  0.42424200  0.37878800  0.40909100  1
  Ni  Ni5  1  0.42424200  0.71212100  0.40909100  1
  Ni  Ni6  1  0.75757600  0.04545500  0.40909100  1
  Ni  Ni7  1  0.75757600  0.37878800  0.40909100  1
  Ni  Ni8  1  0.75757600  0.71212100  0.40909100  1
  Ni  Ni9  1  0.33372317  0.16631084  0.50105788  1
  Ni  Ni10  1  0.33236278  0.49971478  0.50065065  1
  Ni  Ni11  1  0.33368514  0.83439791  0.50103617  1
  Ni  Ni12  1  0.66793673  0.16747941  0.49972674  1
  Ni  Ni13  1  0.66837826  0.49971523  0.50071102  1
  Ni  Ni14  1  0.66826841  0.83553809  0.50070227  1
  Ni  Ni15  1  0.00012806  0.16742276  0.49967088  1
  Ni  Ni16  1  0.00015217  0.49968066  0.49974005  1
  Ni  Ni17  1  0.00189932  0.83436617  0.50104985  1
  Ni  Ni18  1  0.24198199  0.28676747  0.59242641  1
  Ni  Ni19  1  0.24223122  0.62213470  0.59249020  1
  Ni  Ni20  1  0.24393299  0.95535056  0.59258434  1
  Ni  Ni21  1  0.57710830  0.28697370  0.59250864  1
  Ni  Ni22  1  0.57706739  0.95677705  0.59249867  1
  Ni  Ni23  1  0.91005480  0.28837851  0.59125594  1
  Ni  Ni24  1  0.91215072  0.62215123  0.59252066  1
  Ni  Ni25  1  0.91210949  0.95673640  0.59246482  1
  Mo  Mo26  1  0.57660397  0.62163074  0.59119067  1
