# generated using pymatgen
data_Ni
_symmetry_space_group_name_H-M   'P 1'
_cell_length_a   7.33151102
_cell_length_b   7.33233304
_cell_length_c   24.19342100
_cell_angle_alpha   89.99505366
_cell_angle_beta   89.99585023
_cell_angle_gamma   89.99674115
_symmetry_Int_Tables_number   1
_chemical_formula_structural   Ni
_chemical_formula_sum   Ni27
_cell_volume   1300.56766926
_cell_formula_units_Z   27
loop_
 _symmetry_equiv_pos_site_id
 _symmetry_equiv_pos_as_xyz
  1  'x, y, z'
loop_
 _atom_site_type_symbol
 _atom_site_label
 _atom_site_symmetry_multiplicity
 _atom_site_fract_x
 _atom_site_fract_y
 _atom_site_fract_z
 _atom_site_occupancy
  Ni  Ni0  1  0.00000050  0.33387096  0.53597290  1
  Ni  Ni1  1  0.99999999  0.66609932  0.53596386  1
  Ni  Ni2  1  0.99999864  0.99999680  0.53601861  1
  Ni  Ni3  1  0.33380200  0.33380035  0.53590842  1
  Ni  Ni4  1  0.33380407  0.66616862  0.53590058  1
  Ni  Ni5  1  0.33387276  0.99999749  0.53597338  1
  Ni  Ni6  1  0.66617199  0.33380207  0.53590094  1
  Ni  Ni7  1  0.66617082  0.66616786  0.53589333  1
  Ni  Ni8  1  0.66610292  0.99999708  0.53596424  1
  Ni  Ni9  1  0.00000100  0.33333200  0.39285700  1
  Ni  Ni10  1  0.00000100  0.66666500  0.39285700  1
  Ni  Ni11  1  0.00000100  0.99999800  0.39285700  1
  Ni  Ni12  1  0.33333400  0.33333200  0.39285700  1
  Ni  Ni13  1  0.33333400  0.66666500  0.39285700  1
  Ni  Ni14  1  0.33333400  0.99999800  0.39285700  1
  Ni  Ni15  1  0.66666800  0.33333200  0.39285700  1
  Ni  Ni16  1  0.66666800  0.66666500  0.39285700  1
  Ni  Ni17  1  0.66666800  0.99999800  0.39285700  1
  Ni  Ni18  1  0.16633137  0.16632997  0.46440030  1
  Ni  Ni19  1  0.16627907  0.49999149  0.46432153  1
  Ni  Ni20  1  0.16633282  0.83367108  0.46440651  1
  Ni  Ni21  1  0.49999305  0.16627691  0.46432099  1
  Ni  Ni22  1  0.49999192  0.49999109  0.46425519  1
  Ni  Ni23  1  0.49999129  0.83372443  0.46432848  1
  Ni  Ni24  1  0.83367273  0.16633069  0.46440676  1
  Ni  Ni25  1  0.83372571  0.49998975  0.46432877  1
  Ni  Ni26  1  0.83367151  0.83367057  0.46441327  1
