# generated using pymatgen
data_Ir3O5
_symmetry_space_group_name_H-M   'P 1'
_cell_length_a   6.34574200
_cell_length_b   6.38387200
_cell_length_c   25.53556900
_cell_angle_alpha   90.00000000
_cell_angle_beta   90.00000000
_cell_angle_gamma   90.00000000
_symmetry_Int_Tables_number   1
_chemical_formula_structural   Ir3O5
_chemical_formula_sum   'Ir12 O20'
_cell_volume   1034.45623375
_cell_formula_units_Z   4
loop_
 _symmetry_equiv_pos_site_id
 _symmetry_equiv_pos_as_xyz
  1  'x, y, z'
loop_
 _atom_site_type_symbol
 _atom_site_label
 _atom_site_symmetry_multiplicity
 _atom_site_fract_x
 _atom_site_fract_y
 _atom_site_fract_z
 _atom_site_occupancy
  Ir  Ir0  1  0.25000000  0.00000000  0.37500000  1
  Ir  Ir1  1  0.75000000  0.00000000  0.37500000  1
  Ir  Ir2  1  0.00000000  0.50000000  0.37500100  1
  Ir  Ir3  1  0.50000000  0.50000000  0.37500100  1
  Ir  Ir4  1  0.24999487  0.50000311  0.50043045  1
  Ir  Ir5  1  0.74999485  0.50000311  0.50043046  1
  Ir  Ir6  1  0.99999764  0.00000237  0.50014811  1
  Ir  Ir7  1  0.49999768  0.00000238  0.50014811  1
  Ir  Ir8  1  0.24999975  0.00003514  0.62365628  1
  Ir  Ir9  1  0.74999969  0.00003515  0.62365629  1
  Ir  Ir10  1  0.99999632  0.50003407  0.62536583  1
  Ir  Ir11  1  0.49999631  0.50003407  0.62536583  1
  O  O12  1  0.25000000  0.69160400  0.37500200  1
  O  O13  1  0.75000000  0.69160400  0.37500200  1
  O  O14  1  0.25000000  0.30839600  0.37500200  1
  O  O15  1  0.75000000  0.30839600  0.37500200  1
  O  O16  1  0.00000000  0.50000000  0.45209900  1
  O  O17  1  0.50000000  0.50000000  0.45209900  1
  O  O18  1  0.24999683  0.19151637  0.50066577  1
  O  O19  1  0.74999682  0.19151636  0.50066577  1
  O  O20  1  0.00000000  0.00000000  0.42290400  1
  O  O21  1  0.50000000  0.00000000  0.42290400  1
  O  O22  1  0.24999650  0.80848725  0.50066620  1
  O  O23  1  0.74999647  0.80848726  0.50066620  1
  O  O24  1  0.00000162  0.00001376  0.57824735  1
  O  O25  1  0.50000161  0.00001378  0.57824734  1
  O  O26  1  0.24999713  0.69430992  0.62912549  1
  O  O27  1  0.74999711  0.69430993  0.62912548  1
  O  O28  1  0.99999075  0.49998267  0.54909066  1
  O  O29  1  0.49999077  0.49998263  0.54909066  1
  O  O30  1  0.24999630  0.30575733  0.62912459  1
  O  O31  1  0.74999628  0.30575732  0.62912459  1
