# generated using pymatgen
data_Rh
_symmetry_space_group_name_H-M   'P 1'
_cell_length_a   8.03675400
_cell_length_b   8.03670000
_cell_length_c   22.73128200
_cell_angle_alpha   89.99972196
_cell_angle_beta   89.99972196
_cell_angle_gamma   89.99991445
_symmetry_Int_Tables_number   1
_chemical_formula_structural   Rh
_chemical_formula_sum   Rh27
_cell_volume   1468.19033829
_cell_formula_units_Z   27
loop_
 _symmetry_equiv_pos_site_id
 _symmetry_equiv_pos_as_xyz
  1  'x, y, z'
loop_
 _atom_site_type_symbol
 _atom_site_label
 _atom_site_symmetry_multiplicity
 _atom_site_fract_x
 _atom_site_fract_y
 _atom_site_fract_z
 _atom_site_occupancy
  Rh  Rh0  1  0.99999625  0.99999627  0.45637904  1
  Rh  Rh1  1  0.99999628  0.33332952  0.45637810  1
  Rh  Rh2  1  0.99999625  0.66666295  0.45637807  1
  Rh  Rh3  1  0.33332951  0.99999625  0.45637828  1
  Rh  Rh4  1  0.33332965  0.33332969  0.45637753  1
  Rh  Rh5  1  0.33332970  0.66666284  0.45637745  1
  Rh  Rh6  1  0.66666298  0.99999625  0.45637804  1
  Rh  Rh7  1  0.66666285  0.33332971  0.45637744  1
  Rh  Rh8  1  0.66666280  0.66666286  0.45637735  1
  Rh  Rh9  1  0.16666700  0.16666700  0.37500000  1
  Rh  Rh10  1  0.16666700  0.50000000  0.37500000  1
  Rh  Rh11  1  0.16666700  0.83333300  0.37500000  1
  Rh  Rh12  1  0.50000000  0.16666700  0.37500000  1
  Rh  Rh13  1  0.50000000  0.50000000  0.37500000  1
  Rh  Rh14  1  0.50000000  0.83333300  0.37500000  1
  Rh  Rh15  1  0.83333300  0.16666700  0.37500000  1
  Rh  Rh16  1  0.83333300  0.50000000  0.37500000  1
  Rh  Rh17  1  0.83333300  0.83333300  0.37500000  1
  Rh  Rh18  1  0.16666266  0.16666394  0.53781648  1
  Rh  Rh19  1  0.16666238  0.49999325  0.53781753  1
  Rh  Rh20  1  0.16666290  0.83332313  0.53781628  1
  Rh  Rh21  1  0.49999386  0.16666209  0.53781701  1
  Rh  Rh22  1  0.49999276  0.49999374  0.53781711  1
  Rh  Rh23  1  0.49999405  0.83332444  0.53781721  1
  Rh  Rh24  1  0.83332382  0.16666255  0.53781669  1
  Rh  Rh25  1  0.83332511  0.49999350  0.53781680  1
  Rh  Rh26  1  0.83332329  0.83332418  0.53781668  1
