# generated using pymatgen
data_Pt
_symmetry_space_group_name_H-M   'P 1'
_cell_length_a   8.30585400
_cell_length_b   8.30548202
_cell_length_c   23.49208800
_cell_angle_alpha   89.99751652
_cell_angle_beta   89.99900665
_cell_angle_gamma   89.99635752
_symmetry_Int_Tables_number   1
_chemical_formula_structural   Pt
_chemical_formula_sum   Pt27
_cell_volume   1620.58103859
_cell_formula_units_Z   27
loop_
 _symmetry_equiv_pos_site_id
 _symmetry_equiv_pos_as_xyz
  1  'x, y, z'
loop_
 _atom_site_type_symbol
 _atom_site_label
 _atom_site_symmetry_multiplicity
 _atom_site_fract_x
 _atom_site_fract_y
 _atom_site_fract_z
 _atom_site_occupancy
  Pt  Pt0  1  0.00000000  0.00000000  0.45833200  1
  Pt  Pt1  1  0.00000000  0.33333400  0.45833200  1
  Pt  Pt2  1  0.00000000  0.66666700  0.45833200  1
  Pt  Pt3  1  0.33333400  0.00000000  0.45833200  1
  Pt  Pt4  1  0.33333400  0.33333400  0.45833200  1
  Pt  Pt5  1  0.33333400  0.66666700  0.45833200  1
  Pt  Pt6  1  0.66666700  0.00000000  0.45833200  1
  Pt  Pt7  1  0.66666700  0.33333400  0.45833200  1
  Pt  Pt8  1  0.66666700  0.66666700  0.45833200  1
  Pt  Pt9  1  0.99999376  0.99998341  0.62484041  1
  Pt  Pt10  1  0.99999432  0.33331798  0.62484139  1
  Pt  Pt11  1  0.99999401  0.66664996  0.62484165  1
  Pt  Pt12  1  0.33332801  0.99998398  0.62484114  1
  Pt  Pt13  1  0.33332839  0.33331835  0.62484131  1
  Pt  Pt14  1  0.33332814  0.66664901  0.62484158  1
  Pt  Pt15  1  0.66666137  0.99998364  0.62484052  1
  Pt  Pt16  1  0.66666042  0.33331811  0.62484029  1
  Pt  Pt17  1  0.66666100  0.66664956  0.62483933  1
  Pt  Pt18  1  0.16666371  0.16665908  0.54151933  1
  Pt  Pt19  1  0.16666375  0.49999233  0.54151873  1
  Pt  Pt20  1  0.16666376  0.83332412  0.54151895  1
  Pt  Pt21  1  0.49999779  0.16665913  0.54151844  1
  Pt  Pt22  1  0.49999780  0.49999231  0.54151843  1
  Pt  Pt23  1  0.49999775  0.83332404  0.54151834  1
  Pt  Pt24  1  0.83332956  0.16665912  0.54151844  1
  Pt  Pt25  1  0.83332949  0.49999224  0.54151822  1
  Pt  Pt26  1  0.83332956  0.83332410  0.54151832  1
