# generated using pymatgen
data_Ir3O5
_symmetry_space_group_name_H-M   'P 1'
_cell_length_a   6.34574200
_cell_length_b   6.38387200
_cell_length_c   25.53556900
_cell_angle_alpha   90.00000000
_cell_angle_beta   90.00000000
_cell_angle_gamma   90.00000000
_symmetry_Int_Tables_number   1
_chemical_formula_structural   Ir3O5
_chemical_formula_sum   'Ir12 O20'
_cell_volume   1034.45623375
_cell_formula_units_Z   4
loop_
 _symmetry_equiv_pos_site_id
 _symmetry_equiv_pos_as_xyz
  1  'x, y, z'
loop_
 _atom_site_type_symbol
 _atom_site_label
 _atom_site_symmetry_multiplicity
 _atom_site_fract_x
 _atom_site_fract_y
 _atom_site_fract_z
 _atom_site_occupancy
  Ir  Ir0  1  0.25000000  0.00000000  0.37500000  1
  Ir  Ir1  1  0.75000000  0.00000000  0.37500000  1
  Ir  Ir2  1  0.00000000  0.50000000  0.37500100  1
  Ir  Ir3  1  0.50000000  0.50000000  0.37500100  1
  Ir  Ir4  1  0.24999418  0.50000537  0.50039024  1
  Ir  Ir5  1  0.74999414  0.50000534  0.50039024  1
  Ir  Ir6  1  0.99999664  0.00000470  0.50032809  1
  Ir  Ir7  1  0.49999667  0.00000471  0.50032810  1
  Ir  Ir8  1  0.25000085  0.00002952  0.62435478  1
  Ir  Ir9  1  0.75000081  0.00002952  0.62435477  1
  Ir  Ir10  1  0.99999684  0.50002999  0.62604296  1
  Ir  Ir11  1  0.49999684  0.50002993  0.62604298  1
  O  O12  1  0.25000000  0.69160400  0.37500200  1
  O  O13  1  0.75000000  0.69160400  0.37500200  1
  O  O14  1  0.25000000  0.30839600  0.37500200  1
  O  O15  1  0.75000000  0.30839600  0.37500200  1
  O  O16  1  0.00000000  0.50000000  0.45209900  1
  O  O17  1  0.50000000  0.50000000  0.45209900  1
  O  O18  1  0.24999607  0.19175027  0.50070676  1
  O  O19  1  0.74999598  0.19175028  0.50070676  1
  O  O20  1  0.00000000  0.00000000  0.42290400  1
  O  O21  1  0.50000000  0.00000000  0.42290400  1
  O  O22  1  0.24999575  0.80825759  0.50070574  1
  O  O23  1  0.74999575  0.80825765  0.50070574  1
  O  O24  1  0.00000260  0.99999272  0.57878398  1
  O  O25  1  0.50000255  0.99999273  0.57878398  1
  O  O26  1  0.24999749  0.69390436  0.63131074  1
  O  O27  1  0.74999753  0.69390436  0.63131073  1
  O  O28  1  0.99998928  0.49997489  0.54894742  1
  O  O29  1  0.49998929  0.49997488  0.54894743  1
  O  O30  1  0.24999666  0.30614957  0.63130737  1
  O  O31  1  0.74999660  0.30614955  0.63130737  1
