# generated using pymatgen
data_W
_symmetry_space_group_name_H-M   'P 1'
_cell_length_a   8.18352602
_cell_length_b   8.18352418
_cell_length_c   22.27285200
_cell_angle_alpha   89.99630328
_cell_angle_beta   89.99630328
_cell_angle_gamma   109.47270263
_symmetry_Int_Tables_number   1
_chemical_formula_structural   W
_chemical_formula_sum   W27
_cell_volume   1406.29500171
_cell_formula_units_Z   27
loop_
 _symmetry_equiv_pos_site_id
 _symmetry_equiv_pos_as_xyz
  1  'x, y, z'
loop_
 _atom_site_type_symbol
 _atom_site_label
 _atom_site_symmetry_multiplicity
 _atom_site_fract_x
 _atom_site_fract_y
 _atom_site_fract_z
 _atom_site_occupancy
  W  W0  1  0.99995191  0.33328414  0.59705755  1
  W  W1  1  0.99995180  0.66661934  0.59705739  1
  W  W2  1  0.99995155  0.99995189  0.59705806  1
  W  W3  1  0.33328429  0.33328457  0.59705721  1
  W  W4  1  0.33328507  0.66661904  0.59705730  1
  W  W5  1  0.33328458  0.99995163  0.59705748  1
  W  W6  1  0.66661891  0.33328459  0.59705700  1
  W  W7  1  0.66661896  0.66661964  0.59705730  1
  W  W8  1  0.66661924  0.99995144  0.59705777  1
  W  W9  1  0.16664715  0.16664702  0.49858081  1
  W  W10  1  0.16664707  0.49998090  0.49858050  1
  W  W11  1  0.16664705  0.83331438  0.49858105  1
  W  W12  1  0.49998088  0.16664695  0.49858059  1
  W  W13  1  0.49998072  0.49998073  0.49857998  1
  W  W14  1  0.49998059  0.83331444  0.49858067  1
  W  W15  1  0.83331427  0.16664693  0.49858100  1
  W  W16  1  0.83331431  0.49998065  0.49858043  1
  W  W17  1  0.83331425  0.83331431  0.49858099  1
  W  W18  1  0.00000000  0.33333300  0.40000000  1
  W  W19  1  0.00000000  0.66666700  0.40000000  1
  W  W20  1  0.00000000  0.00000000  0.40000000  1
  W  W21  1  0.33333300  0.33333300  0.40000000  1
  W  W22  1  0.33333300  0.66666700  0.40000000  1
  W  W23  1  0.33333300  0.00000000  0.40000000  1
  W  W24  1  0.66666700  0.33333300  0.40000000  1
  W  W25  1  0.66666700  0.66666700  0.40000000  1
  W  W26  1  0.66666700  0.00000000  0.40000000  1
