# generated using pymatgen
data_Sn
_symmetry_space_group_name_H-M   'P 1'
_cell_length_a   9.43221838
_cell_length_b   11.60326658
_cell_length_c   30.60418900
_cell_angle_alpha   90.03914768
_cell_angle_beta   90.23654075
_cell_angle_gamma   88.57775690
_symmetry_Int_Tables_number   1
_chemical_formula_structural   Sn
_chemical_formula_sum   Sn36
_cell_volume   3348.40054919
_cell_formula_units_Z   36
loop_
 _symmetry_equiv_pos_site_id
 _symmetry_equiv_pos_as_xyz
  1  'x, y, z'
loop_
 _atom_site_type_symbol
 _atom_site_label
 _atom_site_symmetry_multiplicity
 _atom_site_fract_x
 _atom_site_fract_y
 _atom_site_fract_z
 _atom_site_occupancy
  Sn  Sn0  1  0.21929130  0.31165931  0.55004946  1
  Sn  Sn1  1  0.21928199  0.81165651  0.55009353  1
  Sn  Sn2  1  0.55262279  0.31165920  0.55004934  1
  Sn  Sn3  1  0.55261311  0.81165615  0.55009252  1
  Sn  Sn4  1  0.88595720  0.31165852  0.55004373  1
  Sn  Sn5  1  0.88594891  0.81165620  0.55008903  1
  Sn  Sn6  1  0.02916666  0.06050283  0.54994549  1
  Sn  Sn7  1  0.02915873  0.56051391  0.54998089  1
  Sn  Sn8  1  0.36250018  0.06050318  0.54994918  1
  Sn  Sn9  1  0.36249027  0.56051424  0.54998691  1
  Sn  Sn10  1  0.69583212  0.06050283  0.54994576  1
  Sn  Sn11  1  0.69582324  0.56051386  0.54998168  1
  Sn  Sn12  1  0.23084165  0.31310921  0.45003221  1
  Sn  Sn13  1  0.23084390  0.81313493  0.45006190  1
  Sn  Sn14  1  0.56417158  0.31310930  0.45003207  1
  Sn  Sn15  1  0.56417134  0.81313300  0.45006253  1
  Sn  Sn16  1  0.89751109  0.31311041  0.45002783  1
  Sn  Sn17  1  0.89750888  0.81313306  0.45005879  1
  Sn  Sn18  1  0.02063592  0.06192191  0.44994444  1
  Sn  Sn19  1  0.02058811  0.56191705  0.44995969  1
  Sn  Sn20  1  0.35396405  0.06192122  0.44994707  1
  Sn  Sn21  1  0.35391964  0.56191835  0.44996327  1
  Sn  Sn22  1  0.68729481  0.06191951  0.44994306  1
  Sn  Sn23  1  0.68725127  0.56191796  0.44995920  1
  Sn  Sn24  1  0.21579100  0.31083800  0.34996900  1
  Sn  Sn25  1  0.21579100  0.81083800  0.34996900  1
  Sn  Sn26  1  0.54912400  0.31083800  0.34996900  1
  Sn  Sn27  1  0.54912400  0.81083800  0.34996900  1
  Sn  Sn28  1  0.88245700  0.31083800  0.34996900  1
  Sn  Sn29  1  0.88245700  0.81083800  0.34996900  1
  Sn  Sn30  1  0.03172900  0.06063000  0.35002900  1
  Sn  Sn31  1  0.03172900  0.56063000  0.35002900  1
  Sn  Sn32  1  0.36506200  0.06063000  0.35002900  1
  Sn  Sn33  1  0.36506200  0.56063000  0.35002900  1
  Sn  Sn34  1  0.69839600  0.06063000  0.35002900  1
  Sn  Sn35  1  0.69839600  0.56063000  0.35002900  1
