# generated using pymatgen
data_Ir3O5
_symmetry_space_group_name_H-M   'P 1'
_cell_length_a   6.34574200
_cell_length_b   6.38387200
_cell_length_c   25.53556900
_cell_angle_alpha   90.00000000
_cell_angle_beta   90.00000000
_cell_angle_gamma   90.00000000
_symmetry_Int_Tables_number   1
_chemical_formula_structural   Ir3O5
_chemical_formula_sum   'Ir12 O20'
_cell_volume   1034.45623375
_cell_formula_units_Z   4
loop_
 _symmetry_equiv_pos_site_id
 _symmetry_equiv_pos_as_xyz
  1  'x, y, z'
loop_
 _atom_site_type_symbol
 _atom_site_label
 _atom_site_symmetry_multiplicity
 _atom_site_fract_x
 _atom_site_fract_y
 _atom_site_fract_z
 _atom_site_occupancy
  Ir  Ir0  1  0.25000000  0.00000000  0.37500000  1
  Ir  Ir1  1  0.75000000  0.00000000  0.37500000  1
  Ir  Ir2  1  0.00000000  0.50000000  0.37500100  1
  Ir  Ir3  1  0.50000000  0.50000000  0.37500100  1
  Ir  Ir4  1  0.24999516  0.50000313  0.50022247  1
  Ir  Ir5  1  0.74999514  0.50000313  0.50022246  1
  Ir  Ir6  1  0.99999840  0.00000292  0.50035774  1
  Ir  Ir7  1  0.49999840  0.00000291  0.50035773  1
  Ir  Ir8  1  0.25000385  0.00002764  0.62475392  1
  Ir  Ir9  1  0.75000386  0.00002766  0.62475393  1
  Ir  Ir10  1  0.00000380  0.50002814  0.62598767  1
  Ir  Ir11  1  0.50000377  0.50002814  0.62598768  1
  O  O12  1  0.25000000  0.69160400  0.37500200  1
  O  O13  1  0.75000000  0.69160400  0.37500200  1
  O  O14  1  0.25000000  0.30839600  0.37500200  1
  O  O15  1  0.75000000  0.30839600  0.37500200  1
  O  O16  1  0.00000000  0.50000000  0.45209900  1
  O  O17  1  0.50000000  0.50000000  0.45209900  1
  O  O18  1  0.24999773  0.19199955  0.50062235  1
  O  O19  1  0.74999773  0.19199956  0.50062234  1
  O  O20  1  0.00000000  0.00000000  0.42290400  1
  O  O21  1  0.50000000  0.00000000  0.42290400  1
  O  O22  1  0.24999747  0.80800476  0.50062124  1
  O  O23  1  0.74999746  0.80800475  0.50062124  1
  O  O24  1  0.00000536  0.99999698  0.57861407  1
  O  O25  1  0.50000531  0.99999698  0.57861407  1
  O  O26  1  0.25000269  0.69332786  0.63172100  1
  O  O27  1  0.75000268  0.69332786  0.63172101  1
  O  O28  1  0.99999099  0.49998320  0.54861618  1
  O  O29  1  0.49999102  0.49998321  0.54861618  1
  O  O30  1  0.25000256  0.30672355  0.63171497  1
  O  O31  1  0.75000254  0.30672355  0.63171497  1
