# generated using pymatgen
data_Pd
_symmetry_space_group_name_H-M   'P 1'
_cell_length_a   8.25699600
_cell_length_b   8.25682200
_cell_length_c   23.35403400
_cell_angle_alpha   89.99925057
_cell_angle_beta   89.99908404
_cell_angle_gamma   89.99983345
_symmetry_Int_Tables_number   1
_chemical_formula_structural   Pd
_chemical_formula_sum   Pd27
_cell_volume   1592.19737858
_cell_formula_units_Z   27
loop_
 _symmetry_equiv_pos_site_id
 _symmetry_equiv_pos_as_xyz
  1  'x, y, z'
loop_
 _atom_site_type_symbol
 _atom_site_label
 _atom_site_symmetry_multiplicity
 _atom_site_fract_x
 _atom_site_fract_y
 _atom_site_fract_z
 _atom_site_occupancy
  Pd  Pd0  1  0.99999783  0.33333411  0.45896617  1
  Pd  Pd1  1  0.99999757  0.66666576  0.45896559  1
  Pd  Pd2  1  0.99999576  0.00000140  0.45896625  1
  Pd  Pd3  1  0.33332906  0.33333335  0.45896588  1
  Pd  Pd4  1  0.33332826  0.66666544  0.45896554  1
  Pd  Pd5  1  0.33333086  0.00000250  0.45896609  1
  Pd  Pd6  1  0.66666386  0.33333152  0.45896634  1
  Pd  Pd7  1  0.66666493  0.66666750  0.45896569  1
  Pd  Pd8  1  0.66666422  0.00000225  0.45896583  1
  Pd  Pd9  1  0.16666300  0.16666600  0.37499900  1
  Pd  Pd10  1  0.16666300  0.50000000  0.37499900  1
  Pd  Pd11  1  0.16666300  0.83333300  0.37499900  1
  Pd  Pd12  1  0.49999600  0.16666600  0.37499900  1
  Pd  Pd13  1  0.49999600  0.50000000  0.37499900  1
  Pd  Pd14  1  0.49999600  0.83333300  0.37499900  1
  Pd  Pd15  1  0.83333000  0.16666600  0.37499900  1
  Pd  Pd16  1  0.83333000  0.50000000  0.37499900  1
  Pd  Pd17  1  0.83333000  0.83333300  0.37499900  1
  Pd  Pd18  1  0.16665962  0.16666533  0.54284863  1
  Pd  Pd19  1  0.16665619  0.49999320  0.54285594  1
  Pd  Pd20  1  0.16665535  0.83332106  0.54284844  1
  Pd  Pd21  1  0.49999274  0.16665879  0.54285538  1
  Pd  Pd22  1  0.49998601  0.49998963  0.54284699  1
  Pd  Pd23  1  0.49999335  0.83333118  0.54284936  1
  Pd  Pd24  1  0.83332057  0.16665800  0.54285248  1
  Pd  Pd25  1  0.83333065  0.49999385  0.54284937  1
  Pd  Pd26  1  0.83332409  0.83332784  0.54285307  1
