# generated using pymatgen
data_CuMo3S4
_symmetry_space_group_name_H-M   'P 1'
_cell_length_a   6.46503600
_cell_length_b   6.38873881
_cell_length_c   27.95633100
_cell_angle_alpha   92.75453660
_cell_angle_beta   96.62629410
_cell_angle_gamma   95.95021841
_symmetry_Int_Tables_number   1
_chemical_formula_structural   CuMo3S4
_chemical_formula_sum   'Cu4 Mo12 S16'
_cell_volume   1138.69222190
_cell_formula_units_Z   4
loop_
 _symmetry_equiv_pos_site_id
 _symmetry_equiv_pos_as_xyz
  1  'x, y, z'
loop_
 _atom_site_type_symbol
 _atom_site_label
 _atom_site_symmetry_multiplicity
 _atom_site_fract_x
 _atom_site_fract_y
 _atom_site_fract_z
 _atom_site_occupancy
  Cu  Cu0  1  0.94057516  0.16191525  0.46114402  1
  Cu  Cu1  1  0.97546651  0.03617310  0.63186396  1
  Cu  Cu2  1  0.05968000  0.84039500  0.27086500  1
  Cu  Cu3  1  0.05393190  0.83940091  0.50359751  1
  Mo  Mo4  1  0.21521500  0.54428600  0.34262100  1
  Mo  Mo5  1  0.20938904  0.53879589  0.57678446  1
  Mo  Mo6  1  0.78479828  0.45622201  0.38883929  1
  Mo  Mo7  1  0.77323863  0.44786235  0.62150214  1
  Mo  Mo8  1  0.40655631  0.21769790  0.37519233  1
  Mo  Mo9  1  0.40224691  0.21606218  0.60904342  1
  Mo  Mo10  1  0.59495600  0.78352200  0.35564700  1
  Mo  Mo11  1  0.58523250  0.77598800  0.58792297  1
  Mo  Mo12  1  0.53596300  0.40601700  0.30007200  1
  Mo  Mo13  1  0.53070966  0.40553741  0.53168301  1
  Mo  Mo14  1  0.46401557  0.59462637  0.43225656  1
  Mo  Mo15  1  0.46116073  0.58066614  0.66177750  1
  S  S16  1  0.14240545  0.36937734  0.41685019  1
  S  S17  1  0.12974467  0.37260062  0.65241625  1
  S  S18  1  0.85836300  0.62855700  0.31503700  1
  S  S19  1  0.85347529  0.62938685  0.54746959  1
  S  S20  1  0.72038700  0.13919400  0.33837300  1
  S  S21  1  0.71061673  0.13067614  0.56895452  1
  S  S22  1  0.27935048  0.86098962  0.39333269  1
  S  S23  1  0.27664482  0.85741519  0.62886413  1
  S  S24  1  0.38464800  0.73460900  0.27877900  1
  S  S25  1  0.37642618  0.73084123  0.51090442  1
  S  S26  1  0.61526664  0.26616062  0.45281576  1
  S  S27  1  0.62198660  0.27616895  0.68715485  1
  S  S28  1  0.19156400  0.20303200  0.29614100  1
  S  S29  1  0.18798985  0.20246062  0.52869615  1
  S  S30  1  0.80869574  0.79795527  0.43560628  1
  S  S31  1  0.80366834  0.77940363  0.67041652  1
