# generated using pymatgen
data_Ni
_symmetry_space_group_name_H-M   'P 1'
_cell_length_a   7.33151102
_cell_length_b   7.33233304
_cell_length_c   24.19342100
_cell_angle_alpha   89.99505366
_cell_angle_beta   89.99585023
_cell_angle_gamma   89.99674115
_symmetry_Int_Tables_number   1
_chemical_formula_structural   Ni
_chemical_formula_sum   Ni27
_cell_volume   1300.56766926
_cell_formula_units_Z   27
loop_
 _symmetry_equiv_pos_site_id
 _symmetry_equiv_pos_as_xyz
  1  'x, y, z'
loop_
 _atom_site_type_symbol
 _atom_site_label
 _atom_site_symmetry_multiplicity
 _atom_site_fract_x
 _atom_site_fract_y
 _atom_site_fract_z
 _atom_site_occupancy
  Ni  Ni0  1  0.99999710  0.33387553  0.53601064  1
  Ni  Ni1  1  0.99999555  0.66609603  0.53600182  1
  Ni  Ni2  1  0.99999420  0.99999093  0.53605982  1
  Ni  Ni3  1  0.33380883  0.33380513  0.53594226  1
  Ni  Ni4  1  0.33381046  0.66616391  0.53593466  1
  Ni  Ni5  1  0.33387835  0.99999319  0.53601107  1
  Ni  Ni6  1  0.66616623  0.33380664  0.53593387  1
  Ni  Ni7  1  0.66616509  0.66616316  0.53592657  1
  Ni  Ni8  1  0.66609869  0.99999167  0.53600098  1
  Ni  Ni9  1  0.00000100  0.33333200  0.39285700  1
  Ni  Ni10  1  0.00000100  0.66666500  0.39285700  1
  Ni  Ni11  1  0.00000100  0.99999800  0.39285700  1
  Ni  Ni12  1  0.33333400  0.33333200  0.39285700  1
  Ni  Ni13  1  0.33333400  0.66666500  0.39285700  1
  Ni  Ni14  1  0.33333400  0.99999800  0.39285700  1
  Ni  Ni15  1  0.66666800  0.33333200  0.39285700  1
  Ni  Ni16  1  0.66666800  0.66666500  0.39285700  1
  Ni  Ni17  1  0.66666800  0.99999800  0.39285700  1
  Ni  Ni18  1  0.16633551  0.16633335  0.46442449  1
  Ni  Ni19  1  0.16628178  0.49999046  0.46433539  1
  Ni  Ni20  1  0.16633732  0.83366530  0.46443122  1
  Ni  Ni21  1  0.49999259  0.16627903  0.46433544  1
  Ni  Ni22  1  0.49999285  0.49999108  0.46426380  1
  Ni  Ni23  1  0.49999256  0.83371941  0.46434295  1
  Ni  Ni24  1  0.83366589  0.16633485  0.46443125  1
  Ni  Ni25  1  0.83371966  0.49999046  0.46434288  1
  Ni  Ni26  1  0.83366428  0.83366392  0.46443786  1
