# generated using pymatgen
data_Rh
_symmetry_space_group_name_H-M   'P 1'
_cell_length_a   8.03672266
_cell_length_b   8.03669826
_cell_length_c   21.92791400
_cell_angle_alpha   86.49772645
_cell_angle_beta   86.49795137
_cell_angle_gamma   59.99991575
_symmetry_Int_Tables_number   1
_chemical_formula_structural   Rh
_chemical_formula_sum   Rh27
_cell_volume   1223.49202859
_cell_formula_units_Z   27
loop_
 _symmetry_equiv_pos_site_id
 _symmetry_equiv_pos_as_xyz
  1  'x, y, z'
loop_
 _atom_site_type_symbol
 _atom_site_label
 _atom_site_symmetry_multiplicity
 _atom_site_fract_x
 _atom_site_fract_y
 _atom_site_fract_z
 _atom_site_occupancy
  Rh  Rh0  1  0.06666700  0.06666700  0.40000000  1
  Rh  Rh1  1  0.06666700  0.40000000  0.40000000  1
  Rh  Rh2  1  0.06666700  0.73333300  0.40000000  1
  Rh  Rh3  1  0.40000000  0.06666700  0.40000000  1
  Rh  Rh4  1  0.40000000  0.40000000  0.40000000  1
  Rh  Rh5  1  0.40000000  0.73333300  0.40000000  1
  Rh  Rh6  1  0.73333300  0.06666700  0.40000000  1
  Rh  Rh7  1  0.73333300  0.40000000  0.40000000  1
  Rh  Rh8  1  0.73333300  0.73333300  0.40000000  1
  Rh  Rh9  1  0.16681410  0.16681384  0.49863409  1
  Rh  Rh10  1  0.16681467  0.50014674  0.49863395  1
  Rh  Rh11  1  0.16681479  0.83347946  0.49863441  1
  Rh  Rh12  1  0.50014696  0.16681443  0.49863396  1
  Rh  Rh13  1  0.50014715  0.50014693  0.49863349  1
  Rh  Rh14  1  0.50014681  0.83347930  0.49863404  1
  Rh  Rh15  1  0.83347983  0.16681448  0.49863445  1
  Rh  Rh16  1  0.83347968  0.50014653  0.49863403  1
  Rh  Rh17  1  0.83347992  0.83347946  0.49863450  1
  Rh  Rh18  1  0.26696343  0.26696256  0.59721415  1
  Rh  Rh19  1  0.26696687  0.60029328  0.59721446  1
  Rh  Rh20  1  0.26696451  0.93363120  0.59721341  1
  Rh  Rh21  1  0.60029466  0.26696575  0.59721450  1
  Rh  Rh22  1  0.60029589  0.60029427  0.59721448  1
  Rh  Rh23  1  0.60029463  0.93363108  0.59721263  1
  Rh  Rh24  1  0.93363247  0.26696338  0.59721369  1
  Rh  Rh25  1  0.93363260  0.60029299  0.59721290  1
  Rh  Rh26  1  0.93363160  0.93363006  0.59721196  1
