# generated using pymatgen
data_Pt
_symmetry_space_group_name_H-M   'P 1'
_cell_length_a   8.30563200
_cell_length_b   8.30548099
_cell_length_c   22.66204900
_cell_angle_alpha   86.50247764
_cell_angle_beta   89.99826160
_cell_angle_gamma   119.99933191
_symmetry_Int_Tables_number   1
_chemical_formula_structural   Pt
_chemical_formula_sum   Pt27
_cell_volume   1350.48407360
_cell_formula_units_Z   27
loop_
 _symmetry_equiv_pos_site_id
 _symmetry_equiv_pos_as_xyz
  1  'x, y, z'
loop_
 _atom_site_type_symbol
 _atom_site_label
 _atom_site_symmetry_multiplicity
 _atom_site_fract_x
 _atom_site_fract_y
 _atom_site_fract_z
 _atom_site_occupancy
  Pt  Pt0  1  0.06666700  0.13333400  0.40000000  1
  Pt  Pt1  1  0.06666700  0.46666700  0.40000000  1
  Pt  Pt2  1  0.06666700  0.80000100  0.40000000  1
  Pt  Pt3  1  0.40000000  0.13333400  0.40000000  1
  Pt  Pt4  1  0.40000000  0.46666700  0.40000000  1
  Pt  Pt5  1  0.40000000  0.80000100  0.40000000  1
  Pt  Pt6  1  0.73333400  0.13333400  0.40000000  1
  Pt  Pt7  1  0.73333400  0.46666700  0.40000000  1
  Pt  Pt8  1  0.73333400  0.80000100  0.40000000  1
  Pt  Pt9  1  0.16636812  0.99940997  0.50266359  1
  Pt  Pt10  1  0.16636706  0.33274250  0.50266363  1
  Pt  Pt11  1  0.16636680  0.66607524  0.50266360  1
  Pt  Pt12  1  0.49970111  0.99940998  0.50266366  1
  Pt  Pt13  1  0.49970099  0.33274270  0.50266364  1
  Pt  Pt14  1  0.49970061  0.66607556  0.50266310  1
  Pt  Pt15  1  0.83303460  0.99941049  0.50266344  1
  Pt  Pt16  1  0.83303445  0.33274271  0.50266392  1
  Pt  Pt17  1  0.83303401  0.66607500  0.50266337  1
  Pt  Pt18  1  0.26607812  0.19883008  0.60527602  1
  Pt  Pt19  1  0.26607457  0.53215893  0.60527585  1
  Pt  Pt20  1  0.26607793  0.86549454  0.60527481  1
  Pt  Pt21  1  0.59941333  0.19883002  0.60527643  1
  Pt  Pt22  1  0.59941032  0.53215899  0.60527448  1
  Pt  Pt23  1  0.59941127  0.86549706  0.60527338  1
  Pt  Pt24  1  0.93274596  0.19883183  0.60527713  1
  Pt  Pt25  1  0.93274483  0.53215826  0.60527676  1
  Pt  Pt26  1  0.93274643  0.86549663  0.60527303  1
