# generated using pymatgen
data_Mo3S4
_symmetry_space_group_name_H-M   'P 1'
_cell_length_a   6.40582443
_cell_length_b   6.40502189
_cell_length_c   27.80788600
_cell_angle_alpha   91.26713631
_cell_angle_beta   91.36148131
_cell_angle_gamma   91.33958978
_symmetry_Int_Tables_number   1
_chemical_formula_structural   Mo3S4
_chemical_formula_sum   'Mo12 S16'
_cell_volume   1140.01494538
_cell_formula_units_Z   4
loop_
 _symmetry_equiv_pos_site_id
 _symmetry_equiv_pos_as_xyz
  1  'x, y, z'
loop_
 _atom_site_type_symbol
 _atom_site_label
 _atom_site_symmetry_multiplicity
 _atom_site_fract_x
 _atom_site_fract_y
 _atom_site_fract_z
 _atom_site_occupancy
  Mo  Mo0  1  0.21053600  0.55052600  0.34322700  1
  Mo  Mo1  1  0.21304811  0.55337302  0.57379977  1
  Mo  Mo2  1  0.78849116  0.44873506  0.38672504  1
  Mo  Mo3  1  0.78239021  0.44573199  0.61748851  1
  Mo  Mo4  1  0.40818938  0.21338347  0.37655555  1
  Mo  Mo5  1  0.40897331  0.21262325  0.60680282  1
  Mo  Mo6  1  0.59470900  0.78943200  0.35357800  1
  Mo  Mo7  1  0.59223300  0.79138887  0.58345837  1
  Mo  Mo8  1  0.55045000  0.40548900  0.29849800  1
  Mo  Mo9  1  0.55149223  0.40831830  0.52805285  1
  Mo  Mo10  1  0.45129934  0.59548408  0.43199176  1
  Mo  Mo11  1  0.45364953  0.58134447  0.65741719  1
  S  S12  1  0.13308084  0.38635716  0.41992324  1
  S  S13  1  0.13133895  0.38101746  0.64970632  1
  S  S14  1  0.86792400  0.61363500  0.31056000  1
  S  S15  1  0.86840527  0.61635659  0.54094061  1
  S  S16  1  0.73733500  0.13203700  0.33909000  1
  S  S17  1  0.73904505  0.13333562  0.56870292  1
  S  S18  1  0.26281828  0.86887934  0.39161779  1
  S  S19  1  0.26647276  0.86930057  0.62433103  1
  S  S20  1  0.38668300  0.73747600  0.28032400  1
  S  S21  1  0.38632394  0.74139926  0.51079277  1
  S  S22  1  0.61441331  0.26294395  0.44967213  1
  S  S23  1  0.61288696  0.26485223  0.68338990  1
  S  S24  1  0.21767900  0.21800500  0.30009800  1
  S  S25  1  0.21839923  0.21773799  0.53084082  1
  S  S26  1  0.78497886  0.78199076  0.43038094  1
  S  S27  1  0.77715136  0.77949339  0.66119824  1
