# generated using pymatgen
data_Mo
_symmetry_space_group_name_H-M   'P 1'
_cell_length_a   8.13431400
_cell_length_b   8.13432797
_cell_length_c   22.13894100
_cell_angle_alpha   90.00084524
_cell_angle_beta   90.00084525
_cell_angle_gamma   109.47202259
_symmetry_Int_Tables_number   1
_chemical_formula_structural   Mo
_chemical_formula_sum   Mo27
_cell_volume   1381.08702123
_cell_formula_units_Z   27
loop_
 _symmetry_equiv_pos_site_id
 _symmetry_equiv_pos_as_xyz
  1  'x, y, z'
loop_
 _atom_site_type_symbol
 _atom_site_label
 _atom_site_symmetry_multiplicity
 _atom_site_fract_x
 _atom_site_fract_y
 _atom_site_fract_z
 _atom_site_occupancy
  Mo  Mo0  1  0.99979715  0.33312920  0.59481950  1
  Mo  Mo1  1  0.99979669  0.66646281  0.59481904  1
  Mo  Mo2  1  0.99979643  0.99979669  0.59481962  1
  Mo  Mo3  1  0.33312985  0.33312987  0.59481969  1
  Mo  Mo4  1  0.33313043  0.66646257  0.59481974  1
  Mo  Mo5  1  0.33313003  0.99979628  0.59481922  1
  Mo  Mo6  1  0.66646360  0.33312989  0.59481908  1
  Mo  Mo7  1  0.66646290  0.66646365  0.59481964  1
  Mo  Mo8  1  0.66646374  0.99979639  0.59481969  1
  Mo  Mo9  1  0.16658224  0.16658189  0.49738994  1
  Mo  Mo10  1  0.16658244  0.49991497  0.49738992  1
  Mo  Mo11  1  0.16658203  0.83324859  0.49738985  1
  Mo  Mo12  1  0.49991573  0.16658252  0.49738992  1
  Mo  Mo13  1  0.49991602  0.49991534  0.49738994  1
  Mo  Mo14  1  0.49991571  0.83324876  0.49738985  1
  Mo  Mo15  1  0.83324920  0.16658223  0.49738989  1
  Mo  Mo16  1  0.83324923  0.49991544  0.49738993  1
  Mo  Mo17  1  0.83324912  0.83324871  0.49738988  1
  Mo  Mo18  1  0.00000000  0.33333300  0.40000000  1
  Mo  Mo19  1  0.00000000  0.66666600  0.40000000  1
  Mo  Mo20  1  1.00000000  1.00000000  0.40000000  1
  Mo  Mo21  1  0.33333300  0.33333300  0.40000000  1
  Mo  Mo22  1  0.33333300  0.66666600  0.40000000  1
  Mo  Mo23  1  0.33333300  1.00000000  0.40000000  1
  Mo  Mo24  1  0.66666700  0.33333300  0.40000000  1
  Mo  Mo25  1  0.66666700  0.66666600  0.40000000  1
  Mo  Mo26  1  0.66666700  1.00000000  0.40000000  1
