# generated using pymatgen
data_Cu2Se
_symmetry_space_group_name_H-M   'P 1'
_cell_length_a   8.09471283
_cell_length_b   8.09451676
_cell_length_c   26.54075200
_cell_angle_alpha   85.62693029
_cell_angle_beta   85.62705062
_cell_angle_gamma   59.99922007
_symmetry_Int_Tables_number   1
_chemical_formula_structural   Cu2Se
_chemical_formula_sum   'Cu24 Se12'
_cell_volume   1500.17856456
_cell_formula_units_Z   12
loop_
 _symmetry_equiv_pos_site_id
 _symmetry_equiv_pos_as_xyz
  1  'x, y, z'
loop_
 _atom_site_type_symbol
 _atom_site_label
 _atom_site_symmetry_multiplicity
 _atom_site_fract_x
 _atom_site_fract_y
 _atom_site_fract_z
 _atom_site_occupancy
  Cu  Cu0  1  0.26562200  0.26563000  0.40625100  1
  Cu  Cu1  1  0.26528258  0.76511409  0.40926849  1
  Cu  Cu2  1  0.76509011  0.26530701  0.40926837  1
  Cu  Cu3  1  0.76510178  0.76512568  0.40926679  1
  Cu  Cu4  1  0.10937300  0.10937800  0.34374900  1
  Cu  Cu5  1  0.10937400  0.60937800  0.34374900  1
  Cu  Cu6  1  0.60937400  0.10937800  0.34374900  1
  Cu  Cu7  1  0.60937400  0.60937800  0.34374900  1
  Cu  Cu8  1  0.07521480  0.07526262  0.54926707  1
  Cu  Cu9  1  0.07517056  0.57474877  0.54927502  1
  Cu  Cu10  1  0.57469991  0.07521910  0.54927429  1
  Cu  Cu11  1  0.57500691  0.57505435  0.54935931  1
  Cu  Cu12  1  0.42233546  0.42232292  0.46815884  1
  Cu  Cu13  1  0.42227132  0.92128860  0.46817079  1
  Cu  Cu14  1  0.92130072  0.42225911  0.46817023  1
  Cu  Cu15  1  0.92198580  0.92197430  0.46798106  1
  Cu  Cu16  1  0.39612941  0.39613422  0.62143491  1
  Cu  Cu17  1  0.39613024  0.89690133  0.62143114  1
  Cu  Cu18  1  0.89689684  0.39613518  0.62143016  1
  Cu  Cu19  1  0.89627426  0.89627781  0.62205814  1
  Cu  Cu20  1  0.23481296  0.23484088  0.59065534  1
  Cu  Cu21  1  0.23436248  0.73476408  0.59183383  1
  Cu  Cu22  1  0.73473496  0.23439047  0.59183372  1
  Cu  Cu23  1  0.73472727  0.73475788  0.59183278  1
  Se  Se24  1  0.43749700  0.43750300  0.37500000  1
  Se  Se25  1  0.43749700  0.93750300  0.37500000  1
  Se  Se26  1  0.93749700  0.43750300  0.37500000  1
  Se  Se27  1  0.93749700  0.93750300  0.37500000  1
  Se  Se28  1  0.24993039  0.24990997  0.50062753  1
  Se  Se29  1  0.24938232  0.74982892  0.50185568  1
  Se  Se30  1  0.74985154  0.24935950  0.50185559  1
  Se  Se31  1  0.74982905  0.74980662  0.50185316  1
  Se  Se32  1  0.05937337  0.05935536  0.64439233  1
  Se  Se33  1  0.05937628  0.55897837  0.64439825  1
  Se  Se34  1  0.55899775  0.05935758  0.64439812  1
  Se  Se35  1  0.55926223  0.55924283  0.64433658  1
