# generated using pymatgen
data_Ni
_symmetry_space_group_name_H-M   'P 1'
_cell_length_a   7.33150949
_cell_length_b   7.33150889
_cell_length_c   21.99719400
_cell_angle_alpha   90.00513446
_cell_angle_beta   93.17934504
_cell_angle_gamma   119.99848735
_symmetry_Int_Tables_number   1
_chemical_formula_structural   Ni
_chemical_formula_sum   Ni27
_cell_volume   1021.87426739
_cell_formula_units_Z   27
loop_
 _symmetry_equiv_pos_site_id
 _symmetry_equiv_pos_as_xyz
  1  'x, y, z'
loop_
 _atom_site_type_symbol
 _atom_site_label
 _atom_site_symmetry_multiplicity
 _atom_site_fract_x
 _atom_site_fract_y
 _atom_site_fract_z
 _atom_site_occupancy
  Ni  Ni0  1  0.09090900  0.04545500  0.40909100  1
  Ni  Ni1  1  0.09090900  0.37878800  0.40909100  1
  Ni  Ni2  1  0.09090900  0.71212100  0.40909100  1
  Ni  Ni3  1  0.42424200  0.04545500  0.40909100  1
  Ni  Ni4  1  0.42424200  0.37878800  0.40909100  1
  Ni  Ni5  1  0.42424200  0.71212100  0.40909100  1
  Ni  Ni6  1  0.75757600  0.04545500  0.40909100  1
  Ni  Ni7  1  0.75757600  0.37878800  0.40909100  1
  Ni  Ni8  1  0.75757600  0.71212100  0.40909100  1
  Ni  Ni9  1  0.33343833  0.16677083  0.50067523  1
  Ni  Ni10  1  0.33347686  0.50001788  0.50069652  1
  Ni  Ni11  1  0.33345135  0.83341867  0.50066717  1
  Ni  Ni12  1  0.66684341  0.16679275  0.50071024  1
  Ni  Ni13  1  0.66683971  0.50004326  0.50071981  1
  Ni  Ni14  1  0.66684759  0.83336512  0.50063964  1
  Ni  Ni15  1  0.00017137  0.16678960  0.50072543  1
  Ni  Ni16  1  0.00007490  0.50003201  0.50037644  1
  Ni  Ni17  1  0.00014119  0.83340389  0.50070566  1
  Ni  Ni18  1  0.24259646  0.28792097  0.59199339  1
  Ni  Ni19  1  0.24242393  0.62128564  0.59184754  1
  Ni  Ni20  1  0.24261787  0.95465235  0.59197845  1
  Ni  Ni21  1  0.57593537  0.28793463  0.59197737  1
  Ni  Ni22  1  0.57608083  0.62143333  0.59194071  1
  Ni  Ni23  1  0.57603605  0.95462658  0.59192460  1
  Ni  Ni24  1  0.90929212  0.28811227  0.59187896  1
  Ni  Ni25  1  0.90932233  0.62126038  0.59187788  1
  Ni  Ni26  1  0.90922658  0.95459782  0.59196573  1
