# generated using pymatgen
data_Sn
_symmetry_space_group_name_H-M   'P 1'
_cell_length_a   9.43221838
_cell_length_b   11.60326658
_cell_length_c   30.60418900
_cell_angle_alpha   90.03914768
_cell_angle_beta   90.23654075
_cell_angle_gamma   88.57775690
_symmetry_Int_Tables_number   1
_chemical_formula_structural   Sn
_chemical_formula_sum   Sn36
_cell_volume   3348.40054919
_cell_formula_units_Z   36
loop_
 _symmetry_equiv_pos_site_id
 _symmetry_equiv_pos_as_xyz
  1  'x, y, z'
loop_
 _atom_site_type_symbol
 _atom_site_label
 _atom_site_symmetry_multiplicity
 _atom_site_fract_x
 _atom_site_fract_y
 _atom_site_fract_z
 _atom_site_occupancy
  Sn  Sn0  1  0.21897735  0.31174870  0.54999965  1
  Sn  Sn1  1  0.21892907  0.81173164  0.55000183  1
  Sn  Sn2  1  0.55231137  0.31174765  0.54999599  1
  Sn  Sn3  1  0.55226742  0.81173194  0.55000098  1
  Sn  Sn4  1  0.88564420  0.31174810  0.54999398  1
  Sn  Sn5  1  0.88559603  0.81173083  0.54999852  1
  Sn  Sn6  1  0.02947343  0.06035669  0.54992543  1
  Sn  Sn7  1  0.02952319  0.56037199  0.54991480  1
  Sn  Sn8  1  0.36280959  0.06035663  0.54992883  1
  Sn  Sn9  1  0.36285947  0.56037048  0.54991706  1
  Sn  Sn10  1  0.69614283  0.06035704  0.54992564  1
  Sn  Sn11  1  0.69619314  0.56037354  0.54991363  1
  Sn  Sn12  1  0.23060160  0.31335938  0.45008265  1
  Sn  Sn13  1  0.23053025  0.81337425  0.45007318  1
  Sn  Sn14  1  0.56393346  0.31336055  0.45008059  1
  Sn  Sn15  1  0.56386172  0.81337597  0.45007244  1
  Sn  Sn16  1  0.89726886  0.31336029  0.45007840  1
  Sn  Sn17  1  0.89719752  0.81337531  0.45006881  1
  Sn  Sn18  1  0.02091185  0.06214558  0.45002317  1
  Sn  Sn19  1  0.02097925  0.56210169  0.45001007  1
  Sn  Sn20  1  0.35424290  0.06214608  0.45002515  1
  Sn  Sn21  1  0.35431097  0.56210170  0.45001189  1
  Sn  Sn22  1  0.68757581  0.06214563  0.45002203  1
  Sn  Sn23  1  0.68764347  0.56210216  0.45000817  1
  Sn  Sn24  1  0.21579100  0.31083800  0.34996900  1
  Sn  Sn25  1  0.21579100  0.81083800  0.34996900  1
  Sn  Sn26  1  0.54912400  0.31083800  0.34996900  1
  Sn  Sn27  1  0.54912400  0.81083800  0.34996900  1
  Sn  Sn28  1  0.88245700  0.31083800  0.34996900  1
  Sn  Sn29  1  0.88245700  0.81083800  0.34996900  1
  Sn  Sn30  1  0.03172900  0.06063000  0.35002900  1
  Sn  Sn31  1  0.03172900  0.56063000  0.35002900  1
  Sn  Sn32  1  0.36506200  0.06063000  0.35002900  1
  Sn  Sn33  1  0.36506200  0.56063000  0.35002900  1
  Sn  Sn34  1  0.69839600  0.06063000  0.35002900  1
  Sn  Sn35  1  0.69839600  0.56063000  0.35002900  1
