# generated using pymatgen
data_Mo3S4
_symmetry_space_group_name_H-M   'P 1'
_cell_length_a   6.40582443
_cell_length_b   6.40502189
_cell_length_c   27.80788600
_cell_angle_alpha   91.26713631
_cell_angle_beta   91.36148131
_cell_angle_gamma   91.33958978
_symmetry_Int_Tables_number   1
_chemical_formula_structural   Mo3S4
_chemical_formula_sum   'Mo12 S16'
_cell_volume   1140.01494538
_cell_formula_units_Z   4
loop_
 _symmetry_equiv_pos_site_id
 _symmetry_equiv_pos_as_xyz
  1  'x, y, z'
loop_
 _atom_site_type_symbol
 _atom_site_label
 _atom_site_symmetry_multiplicity
 _atom_site_fract_x
 _atom_site_fract_y
 _atom_site_fract_z
 _atom_site_occupancy
  Mo  Mo0  1  0.21053600  0.55052600  0.34322700  1
  Mo  Mo1  1  0.21494345  0.55248809  0.57415672  1
  Mo  Mo2  1  0.78692632  0.44870106  0.38652301  1
  Mo  Mo3  1  0.77843921  0.44599029  0.61714104  1
  Mo  Mo4  1  0.40755375  0.21335974  0.37657371  1
  Mo  Mo5  1  0.40935004  0.21375378  0.60709868  1
  Mo  Mo6  1  0.59470900  0.78943200  0.35357800  1
  Mo  Mo7  1  0.59207322  0.79099959  0.58349083  1
  Mo  Mo8  1  0.55045000  0.40548900  0.29849800  1
  Mo  Mo9  1  0.55249310  0.40917154  0.52803904  1
  Mo  Mo10  1  0.45030727  0.59451510  0.43199079  1
  Mo  Mo11  1  0.44977753  0.58076723  0.65705856  1
  S  S12  1  0.13188008  0.38504430  0.42002948  1
  S  S13  1  0.12944995  0.37682422  0.65030275  1
  S  S14  1  0.86792400  0.61363500  0.31056000  1
  S  S15  1  0.86924706  0.61777913  0.54073396  1
  S  S16  1  0.73733500  0.13203700  0.33909000  1
  S  S17  1  0.73899210  0.13370838  0.56837760  1
  S  S18  1  0.26260643  0.86811131  0.39169020  1
  S  S19  1  0.26504087  0.86930272  0.62429297  1
  S  S20  1  0.38668300  0.73747600  0.28032400  1
  S  S21  1  0.38623103  0.74121451  0.51089921  1
  S  S22  1  0.61437538  0.26256806  0.44957729  1
  S  S23  1  0.61298533  0.26694243  0.68425469  1
  S  S24  1  0.21767900  0.21800500  0.30009800  1
  S  S25  1  0.22086451  0.21683444  0.53107542  1
  S  S26  1  0.78355861  0.78155819  0.43032471  1
  S  S27  1  0.77515164  0.77926173  0.66151970  1
