# generated using pymatgen
data_Mo
_symmetry_space_group_name_H-M   'P 1'
_cell_length_a   8.13431400
_cell_length_b   8.13432797
_cell_length_c   22.13894100
_cell_angle_alpha   90.00084524
_cell_angle_beta   90.00084525
_cell_angle_gamma   109.47202259
_symmetry_Int_Tables_number   1
_chemical_formula_structural   Mo
_chemical_formula_sum   Mo27
_cell_volume   1381.08702123
_cell_formula_units_Z   27
loop_
 _symmetry_equiv_pos_site_id
 _symmetry_equiv_pos_as_xyz
  1  'x, y, z'
loop_
 _atom_site_type_symbol
 _atom_site_label
 _atom_site_symmetry_multiplicity
 _atom_site_fract_x
 _atom_site_fract_y
 _atom_site_fract_z
 _atom_site_occupancy
  Mo  Mo0  1  0.99984230  0.33317271  0.59512021  1
  Mo  Mo1  1  0.99984289  0.66650756  0.59512251  1
  Mo  Mo2  1  0.99984184  0.99984264  0.59512128  1
  Mo  Mo3  1  0.33317364  0.33317380  0.59511920  1
  Mo  Mo4  1  0.33317574  0.66650717  0.59511835  1
  Mo  Mo5  1  0.33317591  0.99984118  0.59511981  1
  Mo  Mo6  1  0.66650263  0.33316934  0.59512116  1
  Mo  Mo7  1  0.66650208  0.66650544  0.59512074  1
  Mo  Mo8  1  0.66650375  0.99983796  0.59511908  1
  Mo  Mo9  1  0.16662044  0.16662179  0.49759328  1
  Mo  Mo10  1  0.16662163  0.49995369  0.49759380  1
  Mo  Mo11  1  0.16662276  0.83328786  0.49759256  1
  Mo  Mo12  1  0.49995218  0.16661725  0.49759276  1
  Mo  Mo13  1  0.49995049  0.49995212  0.49759321  1
  Mo  Mo14  1  0.49995255  0.83328541  0.49759369  1
  Mo  Mo15  1  0.83328561  0.16661778  0.49759376  1
  Mo  Mo16  1  0.83328591  0.49995068  0.49759259  1
  Mo  Mo17  1  0.83328499  0.83328684  0.49759302  1
  Mo  Mo18  1  0.00000000  0.33333300  0.40000000  1
  Mo  Mo19  1  0.00000000  0.66666600  0.40000000  1
  Mo  Mo20  1  1.00000000  1.00000000  0.40000000  1
  Mo  Mo21  1  0.33333300  0.33333300  0.40000000  1
  Mo  Mo22  1  0.33333300  0.66666600  0.40000000  1
  Mo  Mo23  1  0.33333300  1.00000000  0.40000000  1
  Mo  Mo24  1  0.66666700  0.33333300  0.40000000  1
  Mo  Mo25  1  0.66666700  0.66666600  0.40000000  1
  Mo  Mo26  1  0.66666700  1.00000000  0.40000000  1
