# generated using pymatgen
data_Mo3S4
_symmetry_space_group_name_H-M   'P 1'
_cell_length_a   6.40582443
_cell_length_b   6.40502189
_cell_length_c   27.80788600
_cell_angle_alpha   91.26713631
_cell_angle_beta   91.36148131
_cell_angle_gamma   91.33958978
_symmetry_Int_Tables_number   1
_chemical_formula_structural   Mo3S4
_chemical_formula_sum   'Mo12 S16'
_cell_volume   1140.01494538
_cell_formula_units_Z   4
loop_
 _symmetry_equiv_pos_site_id
 _symmetry_equiv_pos_as_xyz
  1  'x, y, z'
loop_
 _atom_site_type_symbol
 _atom_site_label
 _atom_site_symmetry_multiplicity
 _atom_site_fract_x
 _atom_site_fract_y
 _atom_site_fract_z
 _atom_site_occupancy
  Mo  Mo0  1  0.21053600  0.55052600  0.34322700  1
  Mo  Mo1  1  0.21182338  0.55483973  0.57341791  1
  Mo  Mo2  1  0.78946340  0.44873311  0.38690168  1
  Mo  Mo3  1  0.78686996  0.44499158  0.61776455  1
  Mo  Mo4  1  0.40877224  0.21358425  0.37663388  1
  Mo  Mo5  1  0.40991949  0.21207141  0.60643004  1
  Mo  Mo6  1  0.59470900  0.78943200  0.35357800  1
  Mo  Mo7  1  0.59140526  0.79020878  0.58350207  1
  Mo  Mo8  1  0.55045000  0.40548900  0.29849800  1
  Mo  Mo9  1  0.55001711  0.40835963  0.52823839  1
  Mo  Mo10  1  0.45203892  0.59580094  0.43183630  1
  Mo  Mo11  1  0.45703101  0.58162492  0.65810923  1
  S  S12  1  0.13396444  0.38709459  0.41983296  1
  S  S13  1  0.13334355  0.38424132  0.64898605  1
  S  S14  1  0.86792400  0.61363500  0.31056000  1
  S  S15  1  0.86741378  0.61517181  0.54125515  1
  S  S16  1  0.73733500  0.13203700  0.33909000  1
  S  S17  1  0.73952785  0.13210620  0.56857404  1
  S  S18  1  0.26300911  0.86954053  0.39148631  1
  S  S19  1  0.26698229  0.86951668  0.62451105  1
  S  S20  1  0.38668300  0.73747600  0.28032400  1
  S  S21  1  0.38486405  0.74220411  0.51052905  1
  S  S22  1  0.61554483  0.26279604  0.44986105  1
  S  S23  1  0.61354851  0.26056029  0.68207542  1
  S  S24  1  0.21767900  0.21800500  0.30009800  1
  S  S25  1  0.21574895  0.21951656  0.53057230  1
  S  S26  1  0.78617824  0.78183071  0.43048267  1
  S  S27  1  0.77937822  0.77970818  0.66053176  1
