# generated using pymatgen
data_Pt
_symmetry_space_group_name_H-M   'P 1'
_cell_length_a   8.30563200
_cell_length_b   8.30548099
_cell_length_c   22.66204900
_cell_angle_alpha   86.50247764
_cell_angle_beta   89.99826160
_cell_angle_gamma   119.99933191
_symmetry_Int_Tables_number   1
_chemical_formula_structural   Pt
_chemical_formula_sum   Pt27
_cell_volume   1350.48407360
_cell_formula_units_Z   27
loop_
 _symmetry_equiv_pos_site_id
 _symmetry_equiv_pos_as_xyz
  1  'x, y, z'
loop_
 _atom_site_type_symbol
 _atom_site_label
 _atom_site_symmetry_multiplicity
 _atom_site_fract_x
 _atom_site_fract_y
 _atom_site_fract_z
 _atom_site_occupancy
  Pt  Pt0  1  0.06666700  0.13333400  0.40000000  1
  Pt  Pt1  1  0.06666700  0.46666700  0.40000000  1
  Pt  Pt2  1  0.06666700  0.80000100  0.40000000  1
  Pt  Pt3  1  0.40000000  0.13333400  0.40000000  1
  Pt  Pt4  1  0.40000000  0.46666700  0.40000000  1
  Pt  Pt5  1  0.40000000  0.80000100  0.40000000  1
  Pt  Pt6  1  0.73333400  0.13333400  0.40000000  1
  Pt  Pt7  1  0.73333400  0.46666700  0.40000000  1
  Pt  Pt8  1  0.73333400  0.80000100  0.40000000  1
  Pt  Pt9  1  0.16637002  0.99941256  0.50276893  1
  Pt  Pt10  1  0.16637013  0.33274611  0.50276897  1
  Pt  Pt11  1  0.16636934  0.66607858  0.50276870  1
  Pt  Pt12  1  0.49970333  0.99941296  0.50276861  1
  Pt  Pt13  1  0.49970366  0.33274619  0.50276891  1
  Pt  Pt14  1  0.49970312  0.66607860  0.50276840  1
  Pt  Pt15  1  0.83303720  0.99941283  0.50276868  1
  Pt  Pt16  1  0.83303710  0.33274653  0.50276894  1
  Pt  Pt17  1  0.83303675  0.66607857  0.50276873  1
  Pt  Pt18  1  0.26606442  0.19880543  0.60576166  1
  Pt  Pt19  1  0.26606424  0.53213765  0.60576050  1
  Pt  Pt20  1  0.26606492  0.86547364  0.60576074  1
  Pt  Pt21  1  0.59939739  0.19880559  0.60576094  1
  Pt  Pt22  1  0.59939696  0.53213770  0.60576033  1
  Pt  Pt23  1  0.59939839  0.86547317  0.60576031  1
  Pt  Pt24  1  0.93273225  0.19880582  0.60576107  1
  Pt  Pt25  1  0.93273137  0.53213842  0.60576016  1
  Pt  Pt26  1  0.93273263  0.86547388  0.60576070  1
