# generated using pymatgen
data_MoSe2
_symmetry_space_group_name_H-M   'P 1'
_cell_length_a   6.57932100
_cell_length_b   13.15865201
_cell_length_c   25.69278231
_cell_angle_alpha   90.00141744
_cell_angle_beta   86.32845510
_cell_angle_gamma   89.99834975
_symmetry_Int_Tables_number   1
_chemical_formula_structural   MoSe2
_chemical_formula_sum   'Mo12 Se24'
_cell_volume   2219.78712514
_cell_formula_units_Z   12
loop_
 _symmetry_equiv_pos_site_id
 _symmetry_equiv_pos_as_xyz
  1  'x, y, z'
loop_
 _atom_site_type_symbol
 _atom_site_label
 _atom_site_symmetry_multiplicity
 _atom_site_fract_x
 _atom_site_fract_y
 _atom_site_fract_z
 _atom_site_occupancy
  Mo  Mo0  1  0.40730700  0.75010700  0.37035000  1
  Mo  Mo1  1  0.90730700  0.75010700  0.37035000  1
  Mo  Mo2  1  0.14824900  0.24988800  0.40742800  1
  Mo  Mo3  1  0.64824900  0.24988800  0.40742800  1
  Mo  Mo4  1  0.12933204  0.75007378  0.48136135  1
  Mo  Mo5  1  0.62933379  0.75007363  0.48135553  1
  Mo  Mo6  1  0.36904729  0.24996152  0.52467088  1
  Mo  Mo7  1  0.86909805  0.24996151  0.52467078  1
  Mo  Mo8  1  0.35144996  0.75004152  0.59380915  1
  Mo  Mo9  1  0.85163129  0.75003710  0.59380904  1
  Mo  Mo10  1  0.09457975  0.25000082  0.62123598  1
  Mo  Mo11  1  0.59457438  0.25000083  0.62125442  1
  Se  Se12  1  0.14805500  0.62304600  0.40738500  1
  Se  Se13  1  0.64805500  0.62304600  0.40738500  1
  Se  Se14  1  0.40751700  0.12282800  0.37038900  1
  Se  Se15  1  0.90751700  0.12282800  0.37038900  1
  Se  Se16  1  0.14804000  0.87717700  0.40738900  1
  Se  Se17  1  0.64804000  0.87717700  0.40738900  1
  Se  Se18  1  0.40750200  0.37696000  0.37039300  1
  Se  Se19  1  0.90750200  0.37696000  0.37039300  1
  Se  Se20  1  0.36986963  0.62333316  0.51954254  1
  Se  Se21  1  0.86983156  0.62333242  0.51954156  1
  Se  Se22  1  0.12938327  0.12599255  0.48342009  1
  Se  Se23  1  0.62938043  0.12600933  0.48343095  1
  Se  Se24  1  0.36984869  0.87678141  0.51955732  1
  Se  Se25  1  0.86981004  0.87678109  0.51955836  1
  Se  Se26  1  0.12937616  0.37388698  0.48338490  1
  Se  Se27  1  0.62937342  0.37387024  0.48339574  1
  Se  Se28  1  0.09161276  0.62692487  0.63347812  1
  Se  Se29  1  0.59160716  0.62704040  0.63351073  1
  Se  Se30  1  0.35082769  0.11383939  0.59668329  1
  Se  Se31  1  0.85074169  0.11383997  0.59668325  1
  Se  Se32  1  0.09159261  0.87316102  0.63347616  1
  Se  Se33  1  0.59158267  0.87304570  0.63350858  1
  Se  Se34  1  0.35081888  0.38613645  0.59665117  1
  Se  Se35  1  0.85073301  0.38613623  0.59665106  1
