# generated using pymatgen
data_Cu
_symmetry_space_group_name_H-M   'P 1'
_cell_length_a   7.56931204
_cell_length_b   6.17958932
_cell_length_c   26.20755800
_cell_angle_alpha   89.93253853
_cell_angle_beta   90.00615399
_cell_angle_gamma   90.00637696
_symmetry_Int_Tables_number   1
_chemical_formula_structural   Cu
_chemical_formula_sum   Cu27
_cell_volume   1225.86394768
_cell_formula_units_Z   27
loop_
 _symmetry_equiv_pos_site_id
 _symmetry_equiv_pos_as_xyz
  1  'x, y, z'
loop_
 _atom_site_type_symbol
 _atom_site_label
 _atom_site_symmetry_multiplicity
 _atom_site_fract_x
 _atom_site_fract_y
 _atom_site_fract_z
 _atom_site_occupancy
  Cu  Cu0  1  0.00000100  0.70833300  0.43055600  1
  Cu  Cu1  1  0.33333400  0.70833300  0.43055600  1
  Cu  Cu2  1  0.66666700  0.70833300  0.43055600  1
  Cu  Cu3  1  0.00000100  0.04166600  0.48611100  1
  Cu  Cu4  1  0.33333400  0.04166600  0.48611100  1
  Cu  Cu5  1  0.66666700  0.04166600  0.48611100  1
  Cu  Cu6  1  0.00001070  0.37130198  0.54234199  1
  Cu  Cu7  1  0.33335313  0.37130537  0.54234173  1
  Cu  Cu8  1  0.66666814  0.37130457  0.54234126  1
  Cu  Cu9  1  0.16666700  0.37500000  0.45833300  1
  Cu  Cu10  1  0.50000000  0.37500000  0.45833300  1
  Cu  Cu11  1  0.83333400  0.37500000  0.45833300  1
  Cu  Cu12  1  0.16666487  0.70835419  0.51333544  1
  Cu  Cu13  1  0.50000928  0.70835268  0.51333271  1
  Cu  Cu14  1  0.83335368  0.70835476  0.51333566  1
  Cu  Cu15  1  0.00002616  0.69808724  0.59941820  1
  Cu  Cu16  1  0.33337269  0.69807485  0.59941445  1
  Cu  Cu17  1  0.66667836  0.69807392  0.59941342  1
  Cu  Cu18  1  0.00001413  0.03725551  0.65109854  1
  Cu  Cu19  1  0.33336280  0.03723363  0.65109720  1
  Cu  Cu20  1  0.66666617  0.03723181  0.65109660  1
  Cu  Cu21  1  0.16666906  0.03200091  0.57023013  1
  Cu  Cu22  1  0.50000872  0.03199448  0.57022645  1
  Cu  Cu23  1  0.83334973  0.03200145  0.57023024  1
  Cu  Cu24  1  0.16668440  0.37013373  0.62648526  1
  Cu  Cu25  1  0.50002454  0.37011732  0.62648714  1
  Cu  Cu26  1  0.83336357  0.37013418  0.62648538  1
