# generated using pymatgen
data_FeMo3S4
_symmetry_space_group_name_H-M   'P 1'
_cell_length_a   6.48394610
_cell_length_b   6.41202525
_cell_length_c   27.90841600
_cell_angle_alpha   93.69337570
_cell_angle_beta   94.75362703
_cell_angle_gamma   97.43854579
_symmetry_Int_Tables_number   1
_chemical_formula_structural   FeMo3S4
_chemical_formula_sum   'Fe4 Mo12 S16'
_cell_volume   1143.25638445
_cell_formula_units_Z   4
loop_
 _symmetry_equiv_pos_site_id
 _symmetry_equiv_pos_as_xyz
  1  'x, y, z'
loop_
 _atom_site_type_symbol
 _atom_site_label
 _atom_site_symmetry_multiplicity
 _atom_site_fract_x
 _atom_site_fract_y
 _atom_site_fract_z
 _atom_site_occupancy
  Fe  Fe0  1  0.93627630  0.15532380  0.46539835  1
  Fe  Fe1  1  0.85903554  0.10814453  0.65633414  1
  Fe  Fe2  1  0.06524100  0.84263700  0.26375600  1
  Fe  Fe3  1  0.05980714  0.84125609  0.49692885  1
  Mo  Mo4  1  0.22024000  0.53922181  0.34352443  1
  Mo  Mo5  1  0.20960104  0.53671555  0.57630386  1
  Mo  Mo6  1  0.78211558  0.45938009  0.38747159  1
  Mo  Mo7  1  0.76859748  0.45641696  0.61888930  1
  Mo  Mo8  1  0.40803339  0.21845826  0.37493300  1
  Mo  Mo9  1  0.39579852  0.21510949  0.60795427  1
  Mo  Mo10  1  0.59340836  0.78215202  0.35569789  1
  Mo  Mo11  1  0.58209340  0.77554922  0.58797160  1
  Mo  Mo12  1  0.54135300  0.40905600  0.30082200  1
  Mo  Mo13  1  0.53295924  0.40653164  0.53231956  1
  Mo  Mo14  1  0.45816727  0.59143266  0.43073759  1
  Mo  Mo15  1  0.44964676  0.58263226  0.66103718  1
  S  S16  1  0.13279832  0.36083978  0.41723020  1
  S  S17  1  0.12202664  0.36368923  0.65041272  1
  S  S18  1  0.86842500  0.63937200  0.31349000  1
  S  S19  1  0.85995229  0.63833456  0.54588782  1
  S  S20  1  0.72301900  0.14241800  0.33608800  1
  S  S21  1  0.71049895  0.13263490  0.56651489  1
  S  S22  1  0.27799181  0.85786677  0.39498175  1
  S  S23  1  0.27017766  0.85487338  0.62914715  1
  S  S24  1  0.38478400  0.73178900  0.28021200  1
  S  S25  1  0.37627073  0.72812045  0.51211161  1
  S  S26  1  0.61594722  0.26775070  0.45110509  1
  S  S27  1  0.60386646  0.27742824  0.68707269  1
  S  S28  1  0.20162900  0.19284800  0.29629700  1
  S  S29  1  0.19184450  0.19321051  0.52815971  1
  S  S30  1  0.80041086  0.80525692  0.43510697  1
  S  S31  1  0.79527018  0.77466350  0.67174654  1
