# generated using pymatgen
data_Cu
_symmetry_space_group_name_H-M   'P 1'
_cell_length_a   7.56629665
_cell_length_b   7.56629665
_cell_length_c   22.70406582
_cell_angle_alpha   86.87439516
_cell_angle_beta   86.87439516
_cell_angle_gamma   60.02635040
_symmetry_Int_Tables_number   1
_chemical_formula_structural   Cu
_chemical_formula_sum   Cu27
_cell_volume   1123.70819012
_cell_formula_units_Z   27
loop_
 _symmetry_equiv_pos_site_id
 _symmetry_equiv_pos_as_xyz
  1  'x, y, z'
loop_
 _atom_site_type_symbol
 _atom_site_label
 _atom_site_symmetry_multiplicity
 _atom_site_fract_x
 _atom_site_fract_y
 _atom_site_fract_z
 _atom_site_occupancy
  Cu  Cu0  1  0.28787900  0.28787900  0.40909100  1
  Cu  Cu1  1  0.28787900  0.62121200  0.40909100  1
  Cu  Cu2  1  0.28787900  0.95454600  0.40909100  1
  Cu  Cu3  1  0.62121200  0.28787900  0.40909100  1
  Cu  Cu4  1  0.62121200  0.62121200  0.40909100  1
  Cu  Cu5  1  0.62121200  0.95454500  0.40909100  1
  Cu  Cu6  1  0.95454600  0.28787900  0.40909100  1
  Cu  Cu7  1  0.95454500  0.62121200  0.40909100  1
  Cu  Cu8  1  0.95454500  0.95454500  0.40909100  1
  Cu  Cu9  1  0.16655800  0.16655781  0.50135140  1
  Cu  Cu10  1  0.16654816  0.49989215  0.50135321  1
  Cu  Cu11  1  0.16654822  0.83323137  0.50135372  1
  Cu  Cu12  1  0.49989212  0.16654811  0.50135333  1
  Cu  Cu13  1  0.49989241  0.49989245  0.50135310  1
  Cu  Cu14  1  0.49989004  0.83323386  0.50135316  1
  Cu  Cu15  1  0.83323138  0.16654814  0.50135375  1
  Cu  Cu16  1  0.83323380  0.49989009  0.50135305  1
  Cu  Cu17  1  0.83322419  0.83322426  0.50135578  1
  Cu  Cu18  1  0.04529165  0.04529183  0.59363616  1
  Cu  Cu19  1  0.04528922  0.37861084  0.59363617  1
  Cu  Cu20  1  0.04529454  0.71194267  0.59363881  1
  Cu  Cu21  1  0.37861073  0.04528932  0.59363640  1
  Cu  Cu22  1  0.37861822  0.37861840  0.59363190  1
  Cu  Cu23  1  0.37862167  0.71195342  0.59363450  1
  Cu  Cu24  1  0.71194277  0.04529459  0.59363891  1
  Cu  Cu25  1  0.71195358  0.37862174  0.59363441  1
  Cu  Cu26  1  0.71194660  0.71194625  0.59363771  1
