# generated using pymatgen
data_Pd
_symmetry_space_group_name_H-M   'P 1'
_cell_length_a   8.25699600
_cell_length_b   8.25682200
_cell_length_c   23.35403400
_cell_angle_alpha   89.99925057
_cell_angle_beta   89.99908404
_cell_angle_gamma   89.99983345
_symmetry_Int_Tables_number   1
_chemical_formula_structural   Pd
_chemical_formula_sum   Pd27
_cell_volume   1592.19737858
_cell_formula_units_Z   27
loop_
 _symmetry_equiv_pos_site_id
 _symmetry_equiv_pos_as_xyz
  1  'x, y, z'
loop_
 _atom_site_type_symbol
 _atom_site_label
 _atom_site_symmetry_multiplicity
 _atom_site_fract_x
 _atom_site_fract_y
 _atom_site_fract_z
 _atom_site_occupancy
  Pd  Pd0  1  0.99999676  0.33333348  0.45922694  1
  Pd  Pd1  1  0.99999674  0.66666840  0.45922699  1
  Pd  Pd2  1  0.99999667  0.00000081  0.45922679  1
  Pd  Pd3  1  0.33333163  0.33333346  0.45922740  1
  Pd  Pd4  1  0.33333153  0.66666834  0.45922743  1
  Pd  Pd5  1  0.33333157  0.00000092  0.45922717  1
  Pd  Pd6  1  0.66666471  0.33333348  0.45922847  1
  Pd  Pd7  1  0.66666480  0.66666845  0.45922841  1
  Pd  Pd8  1  0.66666476  0.00000088  0.45922825  1
  Pd  Pd9  1  0.16666300  0.16666600  0.37499900  1
  Pd  Pd10  1  0.16666300  0.50000000  0.37499900  1
  Pd  Pd11  1  0.16666300  0.83333300  0.37499900  1
  Pd  Pd12  1  0.49999600  0.16666600  0.37499900  1
  Pd  Pd13  1  0.49999600  0.50000000  0.37499900  1
  Pd  Pd14  1  0.49999600  0.83333300  0.37499900  1
  Pd  Pd15  1  0.83333000  0.16666600  0.37499900  1
  Pd  Pd16  1  0.83333000  0.50000000  0.37499900  1
  Pd  Pd17  1  0.83333000  0.83333300  0.37499900  1
  Pd  Pd18  1  0.16665866  0.16666124  0.54335754  1
  Pd  Pd19  1  0.16665894  0.49999587  0.54335844  1
  Pd  Pd20  1  0.16665826  0.83332988  0.54335748  1
  Pd  Pd21  1  0.49999206  0.16666138  0.54335778  1
  Pd  Pd22  1  0.49999146  0.49999554  0.54335819  1
  Pd  Pd23  1  0.49999209  0.83333005  0.54335734  1
  Pd  Pd24  1  0.83332851  0.16666064  0.54335750  1
  Pd  Pd25  1  0.83332874  0.49999586  0.54335757  1
  Pd  Pd26  1  0.83332884  0.83333039  0.54335754  1
