# generated using pymatgen
data_Cu
_symmetry_space_group_name_H-M   'P 1'
_cell_length_a   7.56629665
_cell_length_b   7.56629665
_cell_length_c   22.70406582
_cell_angle_alpha   86.87439516
_cell_angle_beta   86.87439516
_cell_angle_gamma   60.02635040
_symmetry_Int_Tables_number   1
_chemical_formula_structural   Cu
_chemical_formula_sum   Cu27
_cell_volume   1123.70819012
_cell_formula_units_Z   27
loop_
 _symmetry_equiv_pos_site_id
 _symmetry_equiv_pos_as_xyz
  1  'x, y, z'
loop_
 _atom_site_type_symbol
 _atom_site_label
 _atom_site_symmetry_multiplicity
 _atom_site_fract_x
 _atom_site_fract_y
 _atom_site_fract_z
 _atom_site_occupancy
  Cu  Cu0  1  0.28787900  0.28787900  0.40909100  1
  Cu  Cu1  1  0.28787900  0.62121200  0.40909100  1
  Cu  Cu2  1  0.28787900  0.95454600  0.40909100  1
  Cu  Cu3  1  0.62121200  0.28787900  0.40909100  1
  Cu  Cu4  1  0.62121200  0.62121200  0.40909100  1
  Cu  Cu5  1  0.62121200  0.95454500  0.40909100  1
  Cu  Cu6  1  0.95454600  0.28787900  0.40909100  1
  Cu  Cu7  1  0.95454500  0.62121200  0.40909100  1
  Cu  Cu8  1  0.95454500  0.95454500  0.40909100  1
  Cu  Cu9  1  0.16649782  0.16649786  0.50191201  1
  Cu  Cu10  1  0.16649093  0.49982991  0.50191251  1
  Cu  Cu11  1  0.16648789  0.83317093  0.50191217  1
  Cu  Cu12  1  0.49982989  0.16649094  0.50191252  1
  Cu  Cu13  1  0.49983181  0.49983185  0.50191252  1
  Cu  Cu14  1  0.49983064  0.83317374  0.50191154  1
  Cu  Cu15  1  0.83317094  0.16648789  0.50191217  1
  Cu  Cu16  1  0.83317375  0.49983064  0.50191153  1
  Cu  Cu17  1  0.83316546  0.83316543  0.50191296  1
  Cu  Cu18  1  0.04517982  0.04517983  0.59476253  1
  Cu  Cu19  1  0.04517596  0.37850556  0.59476315  1
  Cu  Cu20  1  0.04518101  0.71183504  0.59476516  1
  Cu  Cu21  1  0.37850567  0.04517593  0.59476316  1
  Cu  Cu22  1  0.37850912  0.37850906  0.59476046  1
  Cu  Cu23  1  0.37851313  0.71184097  0.59476189  1
  Cu  Cu24  1  0.71183497  0.04518103  0.59476516  1
  Cu  Cu25  1  0.71184094  0.37851314  0.59476189  1
  Cu  Cu26  1  0.71183644  0.71183650  0.59476404  1
