# generated using pymatgen
data_Rh
_symmetry_space_group_name_H-M   'P 1'
_cell_length_a   8.03672266
_cell_length_b   8.03669826
_cell_length_c   21.92791400
_cell_angle_alpha   86.49772645
_cell_angle_beta   86.49795137
_cell_angle_gamma   59.99991575
_symmetry_Int_Tables_number   1
_chemical_formula_structural   Rh
_chemical_formula_sum   Rh27
_cell_volume   1223.49202859
_cell_formula_units_Z   27
loop_
 _symmetry_equiv_pos_site_id
 _symmetry_equiv_pos_as_xyz
  1  'x, y, z'
loop_
 _atom_site_type_symbol
 _atom_site_label
 _atom_site_symmetry_multiplicity
 _atom_site_fract_x
 _atom_site_fract_y
 _atom_site_fract_z
 _atom_site_occupancy
  Rh  Rh0  1  0.06666700  0.06666700  0.40000000  1
  Rh  Rh1  1  0.06666700  0.40000000  0.40000000  1
  Rh  Rh2  1  0.06666700  0.73333300  0.40000000  1
  Rh  Rh3  1  0.40000000  0.06666700  0.40000000  1
  Rh  Rh4  1  0.40000000  0.40000000  0.40000000  1
  Rh  Rh5  1  0.40000000  0.73333300  0.40000000  1
  Rh  Rh6  1  0.73333300  0.06666700  0.40000000  1
  Rh  Rh7  1  0.73333300  0.40000000  0.40000000  1
  Rh  Rh8  1  0.73333300  0.73333300  0.40000000  1
  Rh  Rh9  1  0.16681245  0.16681110  0.49865687  1
  Rh  Rh10  1  0.16681243  0.50014472  0.49865538  1
  Rh  Rh11  1  0.16681263  0.83347740  0.49865533  1
  Rh  Rh12  1  0.50014580  0.16681114  0.49865574  1
  Rh  Rh13  1  0.50014578  0.50014479  0.49865466  1
  Rh  Rh14  1  0.50014610  0.83347747  0.49865529  1
  Rh  Rh15  1  0.83347895  0.16681116  0.49865551  1
  Rh  Rh16  1  0.83347891  0.50014482  0.49865527  1
  Rh  Rh17  1  0.83347913  0.83347755  0.49865469  1
  Rh  Rh18  1  0.26696481  0.26696175  0.59733313  1
  Rh  Rh19  1  0.26696525  0.60029279  0.59733398  1
  Rh  Rh20  1  0.26696561  0.93362355  0.59733281  1
  Rh  Rh21  1  0.60029575  0.26696229  0.59733374  1
  Rh  Rh22  1  0.60029618  0.60029301  0.59733421  1
  Rh  Rh23  1  0.60029792  0.93362603  0.59733285  1
  Rh  Rh24  1  0.93362670  0.26696261  0.59733281  1
  Rh  Rh25  1  0.93362910  0.60029478  0.59733306  1
  Rh  Rh26  1  0.93362971  0.93362637  0.59733230  1
