# generated using pymatgen
data_Pd
_symmetry_space_group_name_H-M   'P 1'
_cell_length_a   8.25699600
_cell_length_b   8.25682200
_cell_length_c   23.35403400
_cell_angle_alpha   89.99925057
_cell_angle_beta   89.99908404
_cell_angle_gamma   89.99983345
_symmetry_Int_Tables_number   1
_chemical_formula_structural   Pd
_chemical_formula_sum   Pd27
_cell_volume   1592.19737858
_cell_formula_units_Z   27
loop_
 _symmetry_equiv_pos_site_id
 _symmetry_equiv_pos_as_xyz
  1  'x, y, z'
loop_
 _atom_site_type_symbol
 _atom_site_label
 _atom_site_symmetry_multiplicity
 _atom_site_fract_x
 _atom_site_fract_y
 _atom_site_fract_z
 _atom_site_occupancy
  Pd  Pd0  1  0.99999770  0.33333402  0.45873437  1
  Pd  Pd1  1  0.99999754  0.66666728  0.45873421  1
  Pd  Pd2  1  0.99999740  0.00000110  0.45873431  1
  Pd  Pd3  1  0.33332922  0.33333400  0.45873431  1
  Pd  Pd4  1  0.33332920  0.66666721  0.45873430  1
  Pd  Pd5  1  0.33332944  0.00000125  0.45873431  1
  Pd  Pd6  1  0.66666347  0.33333381  0.45873411  1
  Pd  Pd7  1  0.66666362  0.66666736  0.45873400  1
  Pd  Pd8  1  0.66666356  0.00000128  0.45873394  1
  Pd  Pd9  1  0.16666300  0.16666600  0.37499900  1
  Pd  Pd10  1  0.16666300  0.50000000  0.37499900  1
  Pd  Pd11  1  0.16666300  0.83333300  0.37499900  1
  Pd  Pd12  1  0.49999600  0.16666600  0.37499900  1
  Pd  Pd13  1  0.49999600  0.50000000  0.37499900  1
  Pd  Pd14  1  0.49999600  0.83333300  0.37499900  1
  Pd  Pd15  1  0.83333000  0.16666600  0.37499900  1
  Pd  Pd16  1  0.83333000  0.50000000  0.37499900  1
  Pd  Pd17  1  0.83333000  0.83333300  0.37499900  1
  Pd  Pd18  1  0.16665728  0.16665544  0.54251594  1
  Pd  Pd19  1  0.16665687  0.49999743  0.54251688  1
  Pd  Pd20  1  0.16665670  0.83332345  0.54251728  1
  Pd  Pd21  1  0.49999218  0.16665477  0.54251589  1
  Pd  Pd22  1  0.49999193  0.49999745  0.54251564  1
  Pd  Pd23  1  0.49999265  0.83332406  0.54251677  1
  Pd  Pd24  1  0.83332248  0.16665467  0.54251561  1
  Pd  Pd25  1  0.83332312  0.49999797  0.54251586  1
  Pd  Pd26  1  0.83332246  0.83332364  0.54251739  1
