# generated using pymatgen
data_Rh
_symmetry_space_group_name_H-M   'P 1'
_cell_length_a   8.03672266
_cell_length_b   8.03669826
_cell_length_c   21.92791400
_cell_angle_alpha   86.49772645
_cell_angle_beta   86.49795137
_cell_angle_gamma   59.99991575
_symmetry_Int_Tables_number   1
_chemical_formula_structural   Rh
_chemical_formula_sum   Rh27
_cell_volume   1223.49202859
_cell_formula_units_Z   27
loop_
 _symmetry_equiv_pos_site_id
 _symmetry_equiv_pos_as_xyz
  1  'x, y, z'
loop_
 _atom_site_type_symbol
 _atom_site_label
 _atom_site_symmetry_multiplicity
 _atom_site_fract_x
 _atom_site_fract_y
 _atom_site_fract_z
 _atom_site_occupancy
  Rh  Rh0  1  0.06666700  0.06666700  0.40000000  1
  Rh  Rh1  1  0.06666700  0.40000000  0.40000000  1
  Rh  Rh2  1  0.06666700  0.73333300  0.40000000  1
  Rh  Rh3  1  0.40000000  0.06666700  0.40000000  1
  Rh  Rh4  1  0.40000000  0.40000000  0.40000000  1
  Rh  Rh5  1  0.40000000  0.73333300  0.40000000  1
  Rh  Rh6  1  0.73333300  0.06666700  0.40000000  1
  Rh  Rh7  1  0.73333300  0.40000000  0.40000000  1
  Rh  Rh8  1  0.73333300  0.73333300  0.40000000  1
  Rh  Rh9  1  0.16684591  0.16684535  0.49834062  1
  Rh  Rh10  1  0.16684536  0.50017893  0.49834132  1
  Rh  Rh11  1  0.16684531  0.83351151  0.49834208  1
  Rh  Rh12  1  0.50017927  0.16684490  0.49834128  1
  Rh  Rh13  1  0.50017849  0.50017820  0.49834168  1
  Rh  Rh14  1  0.50017859  0.83351114  0.49834161  1
  Rh  Rh15  1  0.83351195  0.16684484  0.49834203  1
  Rh  Rh16  1  0.83351154  0.50017825  0.49834158  1
  Rh  Rh17  1  0.83351135  0.83351091  0.49834198  1
  Rh  Rh18  1  0.26700243  0.26700095  0.59684149  1
  Rh  Rh19  1  0.26700311  0.60033401  0.59684220  1
  Rh  Rh20  1  0.26700308  0.93367160  0.59684147  1
  Rh  Rh21  1  0.60033562  0.26700163  0.59684212  1
  Rh  Rh22  1  0.60033607  0.60033447  0.59684213  1
  Rh  Rh23  1  0.60033582  0.93366926  0.59684167  1
  Rh  Rh24  1  0.93367315  0.26700155  0.59684142  1
  Rh  Rh25  1  0.93367086  0.60033427  0.59684168  1
  Rh  Rh26  1  0.93366984  0.93366821  0.59684138  1
