# generated using pymatgen
data_FeMo3S4
_symmetry_space_group_name_H-M   'P 1'
_cell_length_a   6.48394610
_cell_length_b   6.41202525
_cell_length_c   27.90841600
_cell_angle_alpha   93.69337570
_cell_angle_beta   94.75362703
_cell_angle_gamma   97.43854579
_symmetry_Int_Tables_number   1
_chemical_formula_structural   FeMo3S4
_chemical_formula_sum   'Fe4 Mo12 S16'
_cell_volume   1143.25638445
_cell_formula_units_Z   4
loop_
 _symmetry_equiv_pos_site_id
 _symmetry_equiv_pos_as_xyz
  1  'x, y, z'
loop_
 _atom_site_type_symbol
 _atom_site_label
 _atom_site_symmetry_multiplicity
 _atom_site_fract_x
 _atom_site_fract_y
 _atom_site_fract_z
 _atom_site_occupancy
  Fe  Fe0  1  0.93239898  0.15383271  0.46561604  1
  Fe  Fe1  1  0.82995991  0.09723770  0.64766557  1
  Fe  Fe2  1  0.06524100  0.84263700  0.26375600  1
  Fe  Fe3  1  0.05009434  0.83670311  0.49710192  1
  Mo  Mo4  1  0.22091973  0.53817448  0.34368916  1
  Mo  Mo5  1  0.20161537  0.53201613  0.57642759  1
  Mo  Mo6  1  0.77796396  0.45941003  0.38774967  1
  Mo  Mo7  1  0.76043415  0.45634583  0.61900396  1
  Mo  Mo8  1  0.40610708  0.21749129  0.37502015  1
  Mo  Mo9  1  0.38963553  0.21000718  0.60810701  1
  Mo  Mo10  1  0.59192937  0.78154217  0.35586240  1
  Mo  Mo11  1  0.57216556  0.77453669  0.58794491  1
  Mo  Mo12  1  0.54135300  0.40905600  0.30082200  1
  Mo  Mo13  1  0.52544436  0.40464949  0.53251567  1
  Mo  Mo14  1  0.45328645  0.58982421  0.43091730  1
  Mo  Mo15  1  0.43946068  0.57661070  0.66063453  1
  S  S16  1  0.12874352  0.35819759  0.41709642  1
  S  S17  1  0.11028103  0.35252525  0.64993705  1
  S  S18  1  0.86842500  0.63937200  0.31349000  1
  S  S19  1  0.85143453  0.63792719  0.54630671  1
  S  S20  1  0.72301900  0.14241800  0.33608800  1
  S  S21  1  0.70467332  0.12909132  0.56641825  1
  S  S22  1  0.27580493  0.85708358  0.39498767  1
  S  S23  1  0.25959158  0.85008257  0.62949460  1
  S  S24  1  0.38478400  0.73178900  0.28021200  1
  S  S25  1  0.36702526  0.72389425  0.51202198  1
  S  S26  1  0.61182439  0.26758950  0.45155170  1
  S  S27  1  0.59976210  0.27473249  0.68710206  1
  S  S28  1  0.20162900  0.19284800  0.29629700  1
  S  S29  1  0.18551429  0.18830410  0.52846215  1
  S  S30  1  0.79317014  0.80459459  0.43576321  1
  S  S31  1  0.78333770  0.77504207  0.67169790  1
