# generated using pymatgen
data_Cu
_symmetry_space_group_name_H-M   'P 1'
_cell_length_a   7.56629665
_cell_length_b   7.56629665
_cell_length_c   22.70406582
_cell_angle_alpha   86.87439516
_cell_angle_beta   86.87439516
_cell_angle_gamma   60.02635040
_symmetry_Int_Tables_number   1
_chemical_formula_structural   Cu
_chemical_formula_sum   Cu27
_cell_volume   1123.70819012
_cell_formula_units_Z   27
loop_
 _symmetry_equiv_pos_site_id
 _symmetry_equiv_pos_as_xyz
  1  'x, y, z'
loop_
 _atom_site_type_symbol
 _atom_site_label
 _atom_site_symmetry_multiplicity
 _atom_site_fract_x
 _atom_site_fract_y
 _atom_site_fract_z
 _atom_site_occupancy
  Cu  Cu0  1  0.28787900  0.28787900  0.40909100  1
  Cu  Cu1  1  0.28787900  0.62121200  0.40909100  1
  Cu  Cu2  1  0.28787900  0.95454600  0.40909100  1
  Cu  Cu3  1  0.62121200  0.28787900  0.40909100  1
  Cu  Cu4  1  0.62121200  0.62121200  0.40909100  1
  Cu  Cu5  1  0.62121200  0.95454500  0.40909100  1
  Cu  Cu6  1  0.95454600  0.28787900  0.40909100  1
  Cu  Cu7  1  0.95454500  0.62121200  0.40909100  1
  Cu  Cu8  1  0.95454500  0.95454500  0.40909100  1
  Cu  Cu9  1  0.16663176  0.16663174  0.50049719  1
  Cu  Cu10  1  0.16662322  0.49996473  0.50050041  1
  Cu  Cu11  1  0.16662167  0.83330774  0.50050082  1
  Cu  Cu12  1  0.49996469  0.16662322  0.50050042  1
  Cu  Cu13  1  0.49996526  0.49996519  0.50049845  1
  Cu  Cu14  1  0.49996426  0.83330652  0.50049965  1
  Cu  Cu15  1  0.83330774  0.16662170  0.50050083  1
  Cu  Cu16  1  0.83330652  0.49996432  0.50049964  1
  Cu  Cu17  1  0.83329707  0.83329711  0.50050115  1
  Cu  Cu18  1  0.04543129  0.04543132  0.59195910  1
  Cu  Cu19  1  0.04543258  0.37874556  0.59195902  1
  Cu  Cu20  1  0.04543464  0.71208263  0.59195781  1
  Cu  Cu21  1  0.37874558  0.04543257  0.59195904  1
  Cu  Cu22  1  0.37875821  0.37875824  0.59195573  1
  Cu  Cu23  1  0.37876614  0.71208675  0.59195671  1
  Cu  Cu24  1  0.71208259  0.04543466  0.59195784  1
  Cu  Cu25  1  0.71208672  0.37876621  0.59195672  1
  Cu  Cu26  1  0.71208448  0.71208452  0.59195956  1
