# generated using pymatgen
data_CuMo3S4
_symmetry_space_group_name_H-M   'P 1'
_cell_length_a   6.46503600
_cell_length_b   6.38873881
_cell_length_c   27.95633100
_cell_angle_alpha   92.75453660
_cell_angle_beta   96.62629410
_cell_angle_gamma   95.95021841
_symmetry_Int_Tables_number   1
_chemical_formula_structural   CuMo3S4
_chemical_formula_sum   'Cu4 Mo12 S16'
_cell_volume   1138.69222190
_cell_formula_units_Z   4
loop_
 _symmetry_equiv_pos_site_id
 _symmetry_equiv_pos_as_xyz
  1  'x, y, z'
loop_
 _atom_site_type_symbol
 _atom_site_label
 _atom_site_symmetry_multiplicity
 _atom_site_fract_x
 _atom_site_fract_y
 _atom_site_fract_z
 _atom_site_occupancy
  Cu  Cu0  1  0.94185529  0.16373800  0.46103683  1
  Cu  Cu1  1  0.89822900  0.07393237  0.64696599  1
  Cu  Cu2  1  0.05968000  0.84039500  0.27086500  1
  Cu  Cu3  1  0.05770448  0.84391192  0.50395009  1
  Mo  Mo4  1  0.21521500  0.54428600  0.34262100  1
  Mo  Mo5  1  0.21357496  0.54005671  0.57735389  1
  Mo  Mo6  1  0.78665633  0.45674156  0.38884463  1
  Mo  Mo7  1  0.78128241  0.44938420  0.62005897  1
  Mo  Mo8  1  0.40735685  0.21860092  0.37519849  1
  Mo  Mo9  1  0.40761629  0.21705575  0.60855881  1
  Mo  Mo10  1  0.59495600  0.78352200  0.35564700  1
  Mo  Mo11  1  0.58834648  0.77811458  0.58873995  1
  Mo  Mo12  1  0.53596300  0.40601700  0.30007200  1
  Mo  Mo13  1  0.53371621  0.40838551  0.53124626  1
  Mo  Mo14  1  0.46517372  0.59667172  0.43250777  1
  Mo  Mo15  1  0.46887378  0.57834616  0.66192751  1
  S  S16  1  0.14395371  0.37113813  0.41701633  1
  S  S17  1  0.13783023  0.36477515  0.65171636  1
  S  S18  1  0.85836300  0.62855700  0.31503700  1
  S  S19  1  0.85694755  0.63357688  0.54743279  1
  S  S20  1  0.72038700  0.13919400  0.33837300  1
  S  S21  1  0.71600191  0.13200294  0.56753671  1
  S  S22  1  0.27961041  0.86165385  0.39333605  1
  S  S23  1  0.28378728  0.85788217  0.63011728  1
  S  S24  1  0.38464800  0.73460900  0.27877900  1
  S  S25  1  0.37968476  0.73319972  0.51165908  1
  S  S26  1  0.61627859  0.26753919  0.45263638  1
  S  S27  1  0.63011940  0.26953743  0.68625748  1
  S  S28  1  0.19156400  0.20303200  0.29614100  1
  S  S29  1  0.18963596  0.20483767  0.52878325  1
  S  S30  1  0.81034160  0.79877552  0.43563064  1
  S  S31  1  0.81303098  0.76525159  0.67266086  1
