# generated using pymatgen
data_Ni
_symmetry_space_group_name_H-M   'P 1'
_cell_length_a   7.33151102
_cell_length_b   7.33233304
_cell_length_c   24.19342100
_cell_angle_alpha   89.99505366
_cell_angle_beta   89.99585023
_cell_angle_gamma   89.99674115
_symmetry_Int_Tables_number   1
_chemical_formula_structural   Ni
_chemical_formula_sum   Ni27
_cell_volume   1300.56766926
_cell_formula_units_Z   27
loop_
 _symmetry_equiv_pos_site_id
 _symmetry_equiv_pos_as_xyz
  1  'x, y, z'
loop_
 _atom_site_type_symbol
 _atom_site_label
 _atom_site_symmetry_multiplicity
 _atom_site_fract_x
 _atom_site_fract_y
 _atom_site_fract_z
 _atom_site_occupancy
  Ni  Ni0  1  0.99999785  0.33385118  0.53592871  1
  Ni  Ni1  1  0.99999509  0.66611627  0.53592094  1
  Ni  Ni2  1  0.99999509  0.00000182  0.53596325  1
  Ni  Ni3  1  0.33378300  0.33378401  0.53588085  1
  Ni  Ni4  1  0.33378191  0.66618701  0.53587266  1
  Ni  Ni5  1  0.33385260  0.00000709  0.53593215  1
  Ni  Ni6  1  0.66619852  0.33378107  0.53587223  1
  Ni  Ni7  1  0.66619543  0.66618108  0.53586695  1
  Ni  Ni8  1  0.66612628  0.00000038  0.53592375  1
  Ni  Ni9  1  0.00000100  0.33333200  0.39285700  1
  Ni  Ni10  1  0.00000100  0.66666500  0.39285700  1
  Ni  Ni11  1  0.00000100  0.99999800  0.39285700  1
  Ni  Ni12  1  0.33333400  0.33333200  0.39285700  1
  Ni  Ni13  1  0.33333400  0.66666500  0.39285700  1
  Ni  Ni14  1  0.33333400  0.99999800  0.39285700  1
  Ni  Ni15  1  0.66666800  0.33333200  0.39285700  1
  Ni  Ni16  1  0.66666800  0.66666500  0.39285700  1
  Ni  Ni17  1  0.66666800  0.99999800  0.39285700  1
  Ni  Ni18  1  0.16632821  0.16634829  0.46441778  1
  Ni  Ni19  1  0.16628100  0.49997437  0.46434899  1
  Ni  Ni20  1  0.16633566  0.83365875  0.46442603  1
  Ni  Ni21  1  0.49999130  0.16630183  0.46434861  1
  Ni  Ni22  1  0.49999079  0.49997575  0.46429216  1
  Ni  Ni23  1  0.49999115  0.83371214  0.46435660  1
  Ni  Ni24  1  0.83367166  0.16635625  0.46442486  1
  Ni  Ni25  1  0.83372649  0.49997685  0.46435600  1
  Ni  Ni26  1  0.83367782  0.83366675  0.46443175  1
