# generated using pymatgen
data_MoSe2
_symmetry_space_group_name_H-M   'P 1'
_cell_length_a   6.57932100
_cell_length_b   13.15865201
_cell_length_c   25.69278231
_cell_angle_alpha   90.00141744
_cell_angle_beta   86.32845510
_cell_angle_gamma   89.99834975
_symmetry_Int_Tables_number   1
_chemical_formula_structural   MoSe2
_chemical_formula_sum   'Mo12 Se24'
_cell_volume   2219.78712514
_cell_formula_units_Z   12
loop_
 _symmetry_equiv_pos_site_id
 _symmetry_equiv_pos_as_xyz
  1  'x, y, z'
loop_
 _atom_site_type_symbol
 _atom_site_label
 _atom_site_symmetry_multiplicity
 _atom_site_fract_x
 _atom_site_fract_y
 _atom_site_fract_z
 _atom_site_occupancy
  Mo  Mo0  1  0.40730700  0.75010700  0.37035000  1
  Mo  Mo1  1  0.90730700  0.75010700  0.37035000  1
  Mo  Mo2  1  0.14824900  0.24988800  0.40742800  1
  Mo  Mo3  1  0.64824900  0.24988800  0.40742800  1
  Mo  Mo4  1  0.12935885  0.75007255  0.48125609  1
  Mo  Mo5  1  0.62936074  0.75007242  0.48124895  1
  Mo  Mo6  1  0.36909685  0.24996564  0.52470675  1
  Mo  Mo7  1  0.86905548  0.24996570  0.52470660  1
  Mo  Mo8  1  0.35151262  0.75003468  0.59344538  1
  Mo  Mo9  1  0.85173661  0.75003080  0.59344541  1
  Mo  Mo10  1  0.09434940  0.25000827  0.62238385  1
  Mo  Mo11  1  0.59434266  0.25000829  0.62240782  1
  Se  Se12  1  0.14805500  0.62304600  0.40738500  1
  Se  Se13  1  0.64805500  0.62304600  0.40738500  1
  Se  Se14  1  0.40751700  0.12282800  0.37038900  1
  Se  Se15  1  0.90751700  0.12282800  0.37038900  1
  Se  Se16  1  0.14804000  0.87717700  0.40738900  1
  Se  Se17  1  0.64804000  0.87717700  0.40738900  1
  Se  Se18  1  0.40750200  0.37696000  0.37039300  1
  Se  Se19  1  0.90750200  0.37696000  0.37039300  1
  Se  Se20  1  0.36992032  0.62310973  0.51934416  1
  Se  Se21  1  0.86987175  0.62310907  0.51934309  1
  Se  Se22  1  0.12938283  0.12603689  0.48342849  1
  Se  Se23  1  0.62938120  0.12602832  0.48343425  1
  Se  Se24  1  0.36989832  0.87699709  0.51936237  1
  Se  Se25  1  0.86984896  0.87699678  0.51936343  1
  Se  Se26  1  0.12937617  0.37384839  0.48339120  1
  Se  Se27  1  0.62937450  0.37385692  0.48339698  1
  Se  Se28  1  0.09155120  0.62778887  0.63368220  1
  Se  Se29  1  0.59154238  0.62794189  0.63372850  1
  Se  Se30  1  0.35087833  0.11497545  0.59673381  1
  Se  Se31  1  0.85075246  0.11497587  0.59673376  1
  Se  Se32  1  0.09152872  0.87227014  0.63368799  1
  Se  Se33  1  0.59151532  0.87211731  0.63373429  1
  Se  Se34  1  0.35087102  0.38501712  0.59670083  1
  Se  Se35  1  0.85074584  0.38501712  0.59670072  1
