# generated using pymatgen
data_Cu
_symmetry_space_group_name_H-M   'P 1'
_cell_length_a   7.56931200
_cell_length_b   7.57163409
_cell_length_c   24.95416000
_cell_angle_alpha   89.99856981
_cell_angle_beta   89.99866020
_cell_angle_gamma   89.99125989
_symmetry_Int_Tables_number   1
_chemical_formula_structural   Cu
_chemical_formula_sum   Cu27
_cell_volume   1430.17431756
_cell_formula_units_Z   27
loop_
 _symmetry_equiv_pos_site_id
 _symmetry_equiv_pos_as_xyz
  1  'x, y, z'
loop_
 _atom_site_type_symbol
 _atom_site_label
 _atom_site_symmetry_multiplicity
 _atom_site_fract_x
 _atom_site_fract_y
 _atom_site_fract_z
 _atom_site_occupancy
  Cu  Cu0  1  0.99999862  0.99999777  0.53601353  1
  Cu  Cu1  1  0.99999804  0.33334458  0.53601503  1
  Cu  Cu2  1  0.99999798  0.66665056  0.53601465  1
  Cu  Cu3  1  0.33334511  0.99999732  0.53601515  1
  Cu  Cu4  1  0.33334032  0.33333968  0.53601425  1
  Cu  Cu5  1  0.33334063  0.66665587  0.53601374  1
  Cu  Cu6  1  0.66665125  0.99999727  0.53601461  1
  Cu  Cu7  1  0.66665655  0.33334008  0.53601370  1
  Cu  Cu8  1  0.66665634  0.66665553  0.53601326  1
  Cu  Cu9  1  0.00000100  0.00000000  0.39285700  1
  Cu  Cu10  1  0.00000100  0.33333300  0.39285700  1
  Cu  Cu11  1  0.00000100  0.66666700  0.39285700  1
  Cu  Cu12  1  0.33333400  0.00000000  0.39285700  1
  Cu  Cu13  1  0.33333400  0.33333300  0.39285700  1
  Cu  Cu14  1  0.33333400  0.66666700  0.39285700  1
  Cu  Cu15  1  0.66666700  0.00000000  0.39285700  1
  Cu  Cu16  1  0.66666700  0.33333300  0.39285700  1
  Cu  Cu17  1  0.66666700  0.66666700  0.39285700  1
  Cu  Cu18  1  0.16666019  0.16665943  0.46436805  1
  Cu  Cu19  1  0.16665626  0.49999962  0.46436756  1
  Cu  Cu20  1  0.16666009  0.83333970  0.46436841  1
  Cu  Cu21  1  0.50000022  0.16665548  0.46436769  1
  Cu  Cu22  1  0.50000005  0.49999945  0.46436680  1
  Cu  Cu23  1  0.50000023  0.83334382  0.46436790  1
  Cu  Cu24  1  0.83334047  0.16665936  0.46436838  1
  Cu  Cu25  1  0.83334458  0.49999963  0.46436773  1
  Cu  Cu26  1  0.83334053  0.83333974  0.46436878  1
