# generated using pymatgen
data_Rh
_symmetry_space_group_name_H-M   'P 1'
_cell_length_a   8.03672266
_cell_length_b   8.03669826
_cell_length_c   21.92791400
_cell_angle_alpha   86.49772645
_cell_angle_beta   86.49795137
_cell_angle_gamma   59.99991575
_symmetry_Int_Tables_number   1
_chemical_formula_structural   Rh
_chemical_formula_sum   Rh27
_cell_volume   1223.49202859
_cell_formula_units_Z   27
loop_
 _symmetry_equiv_pos_site_id
 _symmetry_equiv_pos_as_xyz
  1  'x, y, z'
loop_
 _atom_site_type_symbol
 _atom_site_label
 _atom_site_symmetry_multiplicity
 _atom_site_fract_x
 _atom_site_fract_y
 _atom_site_fract_z
 _atom_site_occupancy
  Rh  Rh0  1  0.06666700  0.06666700  0.40000000  1
  Rh  Rh1  1  0.06666700  0.40000000  0.40000000  1
  Rh  Rh2  1  0.06666700  0.73333300  0.40000000  1
  Rh  Rh3  1  0.40000000  0.06666700  0.40000000  1
  Rh  Rh4  1  0.40000000  0.40000000  0.40000000  1
  Rh  Rh5  1  0.40000000  0.73333300  0.40000000  1
  Rh  Rh6  1  0.73333300  0.06666700  0.40000000  1
  Rh  Rh7  1  0.73333300  0.40000000  0.40000000  1
  Rh  Rh8  1  0.73333300  0.73333300  0.40000000  1
  Rh  Rh9  1  0.16682285  0.16682247  0.49852276  1
  Rh  Rh10  1  0.16682264  0.50015516  0.49852291  1
  Rh  Rh11  1  0.16682311  0.83348903  0.49852300  1
  Rh  Rh12  1  0.50015537  0.16682230  0.49852299  1
  Rh  Rh13  1  0.50015614  0.50015593  0.49852281  1
  Rh  Rh14  1  0.50015589  0.83348882  0.49852259  1
  Rh  Rh15  1  0.83348994  0.16682242  0.49852317  1
  Rh  Rh16  1  0.83348953  0.50015541  0.49852266  1
  Rh  Rh17  1  0.83348943  0.83348831  0.49852298  1
  Rh  Rh18  1  0.26698309  0.26698148  0.59702891  1
  Rh  Rh19  1  0.26698331  0.60031501  0.59702914  1
  Rh  Rh20  1  0.26698386  0.93364952  0.59702869  1
  Rh  Rh21  1  0.60031675  0.26698162  0.59702923  1
  Rh  Rh22  1  0.60031742  0.60031553  0.59702839  1
  Rh  Rh23  1  0.60031651  0.93364830  0.59702864  1
  Rh  Rh24  1  0.93365154  0.26698206  0.59702876  1
  Rh  Rh25  1  0.93365037  0.60031452  0.59702863  1
  Rh  Rh26  1  0.93365031  0.93364817  0.59702916  1
