# generated using pymatgen
data_W
_symmetry_space_group_name_H-M   'P 1'
_cell_length_a   8.18352602
_cell_length_b   8.18352418
_cell_length_c   22.27285200
_cell_angle_alpha   89.99630328
_cell_angle_beta   89.99630328
_cell_angle_gamma   109.47270263
_symmetry_Int_Tables_number   1
_chemical_formula_structural   W
_chemical_formula_sum   W27
_cell_volume   1406.29500171
_cell_formula_units_Z   27
loop_
 _symmetry_equiv_pos_site_id
 _symmetry_equiv_pos_as_xyz
  1  'x, y, z'
loop_
 _atom_site_type_symbol
 _atom_site_label
 _atom_site_symmetry_multiplicity
 _atom_site_fract_x
 _atom_site_fract_y
 _atom_site_fract_z
 _atom_site_occupancy
  W  W0  1  0.99994974  0.33328270  0.59777282  1
  W  W1  1  0.99994996  0.66661513  0.59777117  1
  W  W2  1  0.99994849  0.99995048  0.59777151  1
  W  W3  1  0.33328218  0.33328401  0.59777171  1
  W  W4  1  0.33328319  0.66661556  0.59777274  1
  W  W5  1  0.33328370  0.99994905  0.59777113  1
  W  W6  1  0.66661664  0.33328224  0.59777133  1
  W  W7  1  0.66661488  0.66661662  0.59777163  1
  W  W8  1  0.66661623  0.99994922  0.59777270  1
  W  W9  1  0.16664749  0.16664765  0.49892904  1
  W  W10  1  0.16664743  0.49998096  0.49892920  1
  W  W11  1  0.16664765  0.83331412  0.49892894  1
  W  W12  1  0.49998102  0.16664738  0.49892896  1
  W  W13  1  0.49998086  0.49998091  0.49892903  1
  W  W14  1  0.49998077  0.83331430  0.49892917  1
  W  W15  1  0.83331420  0.16664758  0.49892921  1
  W  W16  1  0.83331436  0.49998067  0.49892897  1
  W  W17  1  0.83331407  0.83331421  0.49892903  1
  W  W18  1  0.00000000  0.33333300  0.40000000  1
  W  W19  1  0.00000000  0.66666700  0.40000000  1
  W  W20  1  0.00000000  0.00000000  0.40000000  1
  W  W21  1  0.33333300  0.33333300  0.40000000  1
  W  W22  1  0.33333300  0.66666700  0.40000000  1
  W  W23  1  0.33333300  0.00000000  0.40000000  1
  W  W24  1  0.66666700  0.33333300  0.40000000  1
  W  W25  1  0.66666700  0.66666700  0.40000000  1
  W  W26  1  0.66666700  0.00000000  0.40000000  1
