# generated using pymatgen
data_PtAu26
_symmetry_space_group_name_H-M   'P 1'
_cell_length_a   8.57606266
_cell_length_b   8.57606266
_cell_length_c   23.65109797
_cell_angle_alpha   88.12641697
_cell_angle_beta   88.12641697
_cell_angle_gamma   63.40130658
_symmetry_Int_Tables_number   1
_chemical_formula_structural   PtAu26
_chemical_formula_sum   'Pt1 Au26'
_cell_volume   1554.26011481
_cell_formula_units_Z   1
loop_
 _symmetry_equiv_pos_site_id
 _symmetry_equiv_pos_as_xyz
  1  'x, y, z'
loop_
 _atom_site_type_symbol
 _atom_site_label
 _atom_site_symmetry_multiplicity
 _atom_site_fract_x
 _atom_site_fract_y
 _atom_site_fract_z
 _atom_site_occupancy
  Au  Au0  1  0.20105032  0.20105037  0.60634499  1
  Au  Au1  1  0.20678847  0.53326613  0.60625414  1
  Au  Au2  1  0.20832893  0.86331927  0.60650147  1
  Au  Au3  1  0.53326609  0.20678845  0.60625415  1
  Au  Au4  1  0.53747435  0.86707250  0.60632160  1
  Au  Au5  1  0.86331919  0.20832898  0.60650147  1
  Au  Au6  1  0.86707244  0.53747438  0.60632160  1
  Au  Au7  1  0.87049157  0.87049162  0.60655488  1
  Au  Au8  1  0.00212649  0.33268731  0.50339535  1
  Au  Au9  1  0.99910094  0.66637718  0.50405724  1
  Au  Au10  1  0.99999398  0.99999399  0.50449330  1
  Au  Au11  1  0.33390573  0.33390568  0.50305877  1
  Au  Au12  1  0.32993798  0.67004268  0.50145973  1
  Au  Au13  1  0.33268732  0.00212650  0.50339535  1
  Au  Au14  1  0.67004265  0.32993797  0.50145975  1
  Au  Au15  1  0.66654126  0.66654122  0.50266108  1
  Au  Au16  1  0.66637720  0.99910085  0.50405723  1
  Au  Au17  1  0.13333300  0.13333300  0.40000000  1
  Au  Au18  1  0.13333300  0.46666600  0.40000000  1
  Au  Au19  1  0.13333300  0.80000000  0.40000000  1
  Au  Au20  1  0.46666600  0.13333300  0.40000000  1
  Au  Au21  1  0.46666700  0.46666700  0.40000000  1
  Au  Au22  1  0.46666700  0.80000000  0.40000000  1
  Au  Au23  1  0.80000000  0.13333300  0.40000000  1
  Au  Au24  1  0.80000000  0.46666700  0.40000000  1
  Au  Au25  1  0.80000000  0.80000000  0.40000000  1
  Pt  Pt26  1  0.53722026  0.53722032  0.59604761  1
