# generated using pymatgen
data_Ni26Mo
_symmetry_space_group_name_H-M   'P 1'
_cell_length_a   7.33150949
_cell_length_b   7.33150889
_cell_length_c   21.99719400
_cell_angle_alpha   90.00513446
_cell_angle_beta   93.17934504
_cell_angle_gamma   119.99848735
_symmetry_Int_Tables_number   1
_chemical_formula_structural   Ni26Mo
_chemical_formula_sum   'Ni26 Mo1'
_cell_volume   1021.87426739
_cell_formula_units_Z   1
loop_
 _symmetry_equiv_pos_site_id
 _symmetry_equiv_pos_as_xyz
  1  'x, y, z'
loop_
 _atom_site_type_symbol
 _atom_site_label
 _atom_site_symmetry_multiplicity
 _atom_site_fract_x
 _atom_site_fract_y
 _atom_site_fract_z
 _atom_site_occupancy
  Ni  Ni0  1  0.09090900  0.04545500  0.40909100  1
  Ni  Ni1  1  0.09090900  0.37878800  0.40909100  1
  Ni  Ni2  1  0.09090900  0.71212100  0.40909100  1
  Ni  Ni3  1  0.42424200  0.04545500  0.40909100  1
  Ni  Ni4  1  0.42424200  0.37878800  0.40909100  1
  Ni  Ni5  1  0.42424200  0.71212100  0.40909100  1
  Ni  Ni6  1  0.75757600  0.04545500  0.40909100  1
  Ni  Ni7  1  0.75757600  0.37878800  0.40909100  1
  Ni  Ni8  1  0.75757600  0.71212100  0.40909100  1
  Ni  Ni9  1  0.33364605  0.16629911  0.50189723  1
  Ni  Ni10  1  0.33129383  0.49908524  0.50162733  1
  Ni  Ni11  1  0.33353382  0.83408926  0.50190966  1
  Ni  Ni12  1  0.66723844  0.16703380  0.50075187  1
  Ni  Ni13  1  0.66861223  0.49913816  0.50162314  1
  Ni  Ni14  1  0.66857701  0.83630352  0.50160658  1
  Ni  Ni15  1  0.00037968  0.16697100  0.50072070  1
  Ni  Ni16  1  0.00030017  0.50011088  0.50076210  1
  Ni  Ni17  1  0.00149398  0.83407743  0.50190836  1
  Ni  Ni18  1  0.24191627  0.28645358  0.59456207  1
  Ni  Ni19  1  0.24192542  0.62210583  0.59463979  1
  Ni  Ni20  1  0.24365232  0.95512555  0.59420167  1
  Ni  Ni21  1  0.57679799  0.28652852  0.59462686  1
  Ni  Ni22  1  0.57672277  0.95681955  0.59461685  1
  Ni  Ni23  1  0.90970089  0.28808687  0.59215604  1
  Ni  Ni24  1  0.91225482  0.62207757  0.59461508  1
  Ni  Ni25  1  0.91223526  0.95679765  0.59455603  1
  Mo  Mo26  1  0.57633871  0.62152172  0.59235261  1
