# generated using pymatgen
data_Cu
_symmetry_space_group_name_H-M   'P 1'
_cell_length_a   7.56629665
_cell_length_b   7.56629665
_cell_length_c   22.70406582
_cell_angle_alpha   86.87439516
_cell_angle_beta   86.87439516
_cell_angle_gamma   60.02635040
_symmetry_Int_Tables_number   1
_chemical_formula_structural   Cu
_chemical_formula_sum   Cu27
_cell_volume   1123.70819012
_cell_formula_units_Z   27
loop_
 _symmetry_equiv_pos_site_id
 _symmetry_equiv_pos_as_xyz
  1  'x, y, z'
loop_
 _atom_site_type_symbol
 _atom_site_label
 _atom_site_symmetry_multiplicity
 _atom_site_fract_x
 _atom_site_fract_y
 _atom_site_fract_z
 _atom_site_occupancy
  Cu  Cu0  1  0.28787900  0.28787900  0.40909100  1
  Cu  Cu1  1  0.28787900  0.62121200  0.40909100  1
  Cu  Cu2  1  0.28787900  0.95454600  0.40909100  1
  Cu  Cu3  1  0.62121200  0.28787900  0.40909100  1
  Cu  Cu4  1  0.62121200  0.62121200  0.40909100  1
  Cu  Cu5  1  0.62121200  0.95454500  0.40909100  1
  Cu  Cu6  1  0.95454600  0.28787900  0.40909100  1
  Cu  Cu7  1  0.95454500  0.62121200  0.40909100  1
  Cu  Cu8  1  0.95454500  0.95454500  0.40909100  1
  Cu  Cu9  1  0.16660736  0.16660739  0.50064838  1
  Cu  Cu10  1  0.16659945  0.49994104  0.50064999  1
  Cu  Cu11  1  0.16659800  0.83328394  0.50065134  1
  Cu  Cu12  1  0.49994102  0.16659945  0.50064998  1
  Cu  Cu13  1  0.49994113  0.49994114  0.50064834  1
  Cu  Cu14  1  0.49993950  0.83328345  0.50065014  1
  Cu  Cu15  1  0.83328389  0.16659798  0.50065135  1
  Cu  Cu16  1  0.83328342  0.49993949  0.50065015  1
  Cu  Cu17  1  0.83327312  0.83327310  0.50065237  1
  Cu  Cu18  1  0.04538208  0.04538210  0.59223757  1
  Cu  Cu19  1  0.04538341  0.37869859  0.59223624  1
  Cu  Cu20  1  0.04538662  0.71203435  0.59223463  1
  Cu  Cu21  1  0.37869863  0.04538341  0.59223624  1
  Cu  Cu22  1  0.37871025  0.37871019  0.59223289  1
  Cu  Cu23  1  0.37871668  0.71203849  0.59223273  1
  Cu  Cu24  1  0.71203431  0.04538670  0.59223464  1
  Cu  Cu25  1  0.71203853  0.37871660  0.59223276  1
  Cu  Cu26  1  0.71203648  0.71203649  0.59223631  1
