# generated using pymatgen
data_Ni
_symmetry_space_group_name_H-M   'P 1'
_cell_length_a   7.33150949
_cell_length_b   7.33150889
_cell_length_c   21.99719400
_cell_angle_alpha   90.00513446
_cell_angle_beta   93.17934504
_cell_angle_gamma   119.99848735
_symmetry_Int_Tables_number   1
_chemical_formula_structural   Ni
_chemical_formula_sum   Ni27
_cell_volume   1021.87426739
_cell_formula_units_Z   27
loop_
 _symmetry_equiv_pos_site_id
 _symmetry_equiv_pos_as_xyz
  1  'x, y, z'
loop_
 _atom_site_type_symbol
 _atom_site_label
 _atom_site_symmetry_multiplicity
 _atom_site_fract_x
 _atom_site_fract_y
 _atom_site_fract_z
 _atom_site_occupancy
  Ni  Ni0  1  0.09090900  0.04545500  0.40909100  1
  Ni  Ni1  1  0.09090900  0.37878800  0.40909100  1
  Ni  Ni2  1  0.09090900  0.71212100  0.40909100  1
  Ni  Ni3  1  0.42424200  0.04545500  0.40909100  1
  Ni  Ni4  1  0.42424200  0.37878800  0.40909100  1
  Ni  Ni5  1  0.42424200  0.71212100  0.40909100  1
  Ni  Ni6  1  0.75757600  0.04545500  0.40909100  1
  Ni  Ni7  1  0.75757600  0.37878800  0.40909100  1
  Ni  Ni8  1  0.75757600  0.71212100  0.40909100  1
  Ni  Ni9  1  0.33338665  0.16673552  0.50026574  1
  Ni  Ni10  1  0.33340145  0.50008157  0.50024080  1
  Ni  Ni11  1  0.33338991  0.83344003  0.50022940  1
  Ni  Ni12  1  0.66675056  0.16672178  0.50025796  1
  Ni  Ni13  1  0.66676927  0.50008606  0.50026524  1
  Ni  Ni14  1  0.66677755  0.83340244  0.50024075  1
  Ni  Ni15  1  0.00005630  0.16668514  0.50026414  1
  Ni  Ni16  1  0.00006621  0.50007807  0.50021514  1
  Ni  Ni17  1  0.00011337  0.83348712  0.50026932  1
  Ni  Ni18  1  0.24250569  0.28789853  0.59136762  1
  Ni  Ni19  1  0.24250528  0.62130173  0.59132794  1
  Ni  Ni20  1  0.24250205  0.95457159  0.59134986  1
  Ni  Ni21  1  0.57590107  0.28793379  0.59135588  1
  Ni  Ni22  1  0.57593527  0.62134503  0.59133268  1
  Ni  Ni23  1  0.57590438  0.95458779  0.59132006  1
  Ni  Ni24  1  0.90911799  0.28789682  0.59136405  1
  Ni  Ni25  1  0.90915146  0.62129442  0.59136030  1
  Ni  Ni26  1  0.90910256  0.95455160  0.59135173  1
