# generated using pymatgen
data_Cu2Se
_symmetry_space_group_name_H-M   'P 1'
_cell_length_a   8.09471283
_cell_length_b   8.09451676
_cell_length_c   26.54075200
_cell_angle_alpha   85.62693029
_cell_angle_beta   85.62705062
_cell_angle_gamma   59.99922007
_symmetry_Int_Tables_number   1
_chemical_formula_structural   Cu2Se
_chemical_formula_sum   'Cu24 Se12'
_cell_volume   1500.17856456
_cell_formula_units_Z   12
loop_
 _symmetry_equiv_pos_site_id
 _symmetry_equiv_pos_as_xyz
  1  'x, y, z'
loop_
 _atom_site_type_symbol
 _atom_site_label
 _atom_site_symmetry_multiplicity
 _atom_site_fract_x
 _atom_site_fract_y
 _atom_site_fract_z
 _atom_site_occupancy
  Cu  Cu0  1  0.26562200  0.26563000  0.40625100  1
  Cu  Cu1  1  0.26530115  0.76527611  0.40854032  1
  Cu  Cu2  1  0.76525168  0.26532542  0.40854028  1
  Cu  Cu3  1  0.76526364  0.76528748  0.40853887  1
  Cu  Cu4  1  0.10937300  0.10937800  0.34374900  1
  Cu  Cu5  1  0.10937400  0.60937800  0.34374900  1
  Cu  Cu6  1  0.60937400  0.10937800  0.34374900  1
  Cu  Cu7  1  0.60937400  0.60937800  0.34374900  1
  Cu  Cu8  1  0.07515508  0.07521404  0.54873543  1
  Cu  Cu9  1  0.07511398  0.57502409  0.54874017  1
  Cu  Cu10  1  0.57496176  0.07517489  0.54873996  1
  Cu  Cu11  1  0.57504735  0.57510828  0.54884185  1
  Cu  Cu12  1  0.42228411  0.42226693  0.46785784  1
  Cu  Cu13  1  0.42222380  0.92151847  0.46786783  1
  Cu  Cu14  1  0.92153529  0.42220727  0.46786730  1
  Cu  Cu15  1  0.92201385  0.92199860  0.46775689  1
  Cu  Cu16  1  0.39613938  0.39614815  0.62162255  1
  Cu  Cu17  1  0.39612999  0.89673072  0.62161483  1
  Cu  Cu18  1  0.89672023  0.39613974  0.62161548  1
  Cu  Cu19  1  0.89621863  0.89622752  0.62221687  1
  Cu  Cu20  1  0.23477306  0.23481263  0.59070565  1
  Cu  Cu21  1  0.23433252  0.73477170  0.59168646  1
  Cu  Cu22  1  0.73473475  0.23436960  0.59168642  1
  Cu  Cu23  1  0.73472371  0.73476099  0.59168513  1
  Se  Se24  1  0.43749700  0.43750300  0.37500000  1
  Se  Se25  1  0.43749700  0.93750300  0.37500000  1
  Se  Se26  1  0.93749700  0.43750300  0.37500000  1
  Se  Se27  1  0.93749700  0.93750300  0.37500000  1
  Se  Se28  1  0.24998058  0.24994934  0.50039554  1
  Se  Se29  1  0.24957416  0.74986010  0.50139678  1
  Se  Se30  1  0.74989150  0.24954295  0.50139684  1
  Se  Se31  1  0.74986587  0.74983466  0.50139436  1
  Se  Se32  1  0.05946649  0.05944908  0.64368215  1
  Se  Se33  1  0.05947463  0.55908746  0.64368732  1
  Se  Se34  1  0.55910580  0.05945651  0.64368719  1
  Se  Se35  1  0.55936477  0.55934785  0.64363502  1
