# generated using pymatgen
data_Co
_symmetry_space_group_name_H-M   'P 1'
_cell_length_a   7.20020400
_cell_length_b   7.22369791
_cell_length_c   21.95056060
_cell_angle_alpha   90.70782154
_cell_angle_beta   92.74453361
_cell_angle_gamma   114.11633735
_symmetry_Int_Tables_number   1
_chemical_formula_structural   Co
_chemical_formula_sum   Co27
_cell_volume   1040.21162622
_cell_formula_units_Z   27
loop_
 _symmetry_equiv_pos_site_id
 _symmetry_equiv_pos_as_xyz
  1  'x, y, z'
loop_
 _atom_site_type_symbol
 _atom_site_label
 _atom_site_symmetry_multiplicity
 _atom_site_fract_x
 _atom_site_fract_y
 _atom_site_fract_z
 _atom_site_occupancy
  Co  Co0  1  0.28787700  0.18181700  0.40909100  1
  Co  Co1  1  0.28787700  0.51515000  0.40909100  1
  Co  Co2  1  0.28787700  0.84848400  0.40909100  1
  Co  Co3  1  0.62121100  0.18181700  0.40909100  1
  Co  Co4  1  0.62121100  0.51515000  0.40909100  1
  Co  Co5  1  0.62121100  0.84848400  0.40909100  1
  Co  Co6  1  0.95454400  0.18181700  0.40909100  1
  Co  Co7  1  0.95454400  0.51515000  0.40909100  1
  Co  Co8  1  0.95454400  0.84848400  0.40909100  1
  Co  Co9  1  0.18487104  0.98477057  0.49999863  1
  Co  Co10  1  0.18197311  0.31662925  0.49966218  1
  Co  Co11  1  0.18465511  0.65207786  0.49974928  1
  Co  Co12  1  0.51681554  0.98291899  0.50008044  1
  Co  Co13  1  0.51459514  0.31475331  0.49995903  1
  Co  Co14  1  0.51615723  0.64914687  0.49991250  1
  Co  Co15  1  0.84999024  0.98191478  0.49999958  1
  Co  Co16  1  0.84660731  0.31335191  0.49975632  1
  Co  Co17  1  0.84813386  0.64704450  0.49981631  1
  Co  Co18  1  0.07784900  0.11902405  0.59074009  1
  Co  Co19  1  0.07660512  0.45199709  0.59038788  1
  Co  Co20  1  0.07660806  0.78443677  0.59057446  1
  Co  Co21  1  0.41010534  0.11700858  0.59103147  1
  Co  Co22  1  0.40914260  0.45059044  0.59072856  1
  Co  Co23  1  0.40909735  0.78301943  0.59086861  1
  Co  Co24  1  0.74428686  0.11727254  0.59088107  1
  Co  Co25  1  0.74279202  0.45039949  0.59076453  1
  Co  Co26  1  0.74325930  0.78342029  0.59076027  1
