# generated using pymatgen
data_Rh
_symmetry_space_group_name_H-M   'P 1'
_cell_length_a   8.03675400
_cell_length_b   8.03670000
_cell_length_c   22.73128200
_cell_angle_alpha   89.99972196
_cell_angle_beta   89.99972196
_cell_angle_gamma   89.99991445
_symmetry_Int_Tables_number   1
_chemical_formula_structural   Rh
_chemical_formula_sum   Rh27
_cell_volume   1468.19033829
_cell_formula_units_Z   27
loop_
 _symmetry_equiv_pos_site_id
 _symmetry_equiv_pos_as_xyz
  1  'x, y, z'
loop_
 _atom_site_type_symbol
 _atom_site_label
 _atom_site_symmetry_multiplicity
 _atom_site_fract_x
 _atom_site_fract_y
 _atom_site_fract_z
 _atom_site_occupancy
  Rh  Rh0  1  0.99999537  0.99999820  0.45686021  1
  Rh  Rh1  1  0.99999795  0.33333627  0.45685911  1
  Rh  Rh2  1  0.99999794  0.66665993  0.45685899  1
  Rh  Rh3  1  0.33333017  0.99999816  0.45684724  1
  Rh  Rh4  1  0.33333017  0.33333891  0.45685009  1
  Rh  Rh5  1  0.33333010  0.66665723  0.45685000  1
  Rh  Rh6  1  0.66667017  0.99999821  0.45685978  1
  Rh  Rh7  1  0.66666740  0.33333634  0.45685875  1
  Rh  Rh8  1  0.66666731  0.66665980  0.45685863  1
  Rh  Rh9  1  0.16666700  0.16666700  0.37500000  1
  Rh  Rh10  1  0.16666700  0.50000000  0.37500000  1
  Rh  Rh11  1  0.16666700  0.83333300  0.37500000  1
  Rh  Rh12  1  0.50000000  0.16666700  0.37500000  1
  Rh  Rh13  1  0.50000000  0.50000000  0.37500000  1
  Rh  Rh14  1  0.50000000  0.83333300  0.37500000  1
  Rh  Rh15  1  0.83333300  0.16666700  0.37500000  1
  Rh  Rh16  1  0.83333300  0.50000000  0.37500000  1
  Rh  Rh17  1  0.83333300  0.83333300  0.37500000  1
  Rh  Rh18  1  0.16668265  0.16666742  0.53873159  1
  Rh  Rh19  1  0.16667870  0.49999641  0.53874624  1
  Rh  Rh20  1  0.16668264  0.83332502  0.53873148  1
  Rh  Rh21  1  0.49997841  0.16666750  0.53873103  1
  Rh  Rh22  1  0.49998204  0.49999649  0.53874570  1
  Rh  Rh23  1  0.49997850  0.83332516  0.53873095  1
  Rh  Rh24  1  0.83333009  0.16667131  0.53873441  1
  Rh  Rh25  1  0.83333003  0.49999654  0.53874258  1
  Rh  Rh26  1  0.83333011  0.83332129  0.53873430  1
