# generated using pymatgen
data_Cu
_symmetry_space_group_name_H-M   'P 1'
_cell_length_a   7.56629665
_cell_length_b   7.56629665
_cell_length_c   22.70406582
_cell_angle_alpha   86.87439516
_cell_angle_beta   86.87439516
_cell_angle_gamma   60.02635040
_symmetry_Int_Tables_number   1
_chemical_formula_structural   Cu
_chemical_formula_sum   Cu27
_cell_volume   1123.70819012
_cell_formula_units_Z   27
loop_
 _symmetry_equiv_pos_site_id
 _symmetry_equiv_pos_as_xyz
  1  'x, y, z'
loop_
 _atom_site_type_symbol
 _atom_site_label
 _atom_site_symmetry_multiplicity
 _atom_site_fract_x
 _atom_site_fract_y
 _atom_site_fract_z
 _atom_site_occupancy
  Cu  Cu0  1  0.28787900  0.28787900  0.40909100  1
  Cu  Cu1  1  0.28787900  0.62121200  0.40909100  1
  Cu  Cu2  1  0.28787900  0.95454600  0.40909100  1
  Cu  Cu3  1  0.62121200  0.28787900  0.40909100  1
  Cu  Cu4  1  0.62121200  0.62121200  0.40909100  1
  Cu  Cu5  1  0.62121200  0.95454500  0.40909100  1
  Cu  Cu6  1  0.95454600  0.28787900  0.40909100  1
  Cu  Cu7  1  0.95454500  0.62121200  0.40909100  1
  Cu  Cu8  1  0.95454500  0.95454500  0.40909100  1
  Cu  Cu9  1  0.16655005  0.16655019  0.50130317  1
  Cu  Cu10  1  0.16654055  0.49988410  0.50130415  1
  Cu  Cu11  1  0.16653998  0.83322453  0.50130464  1
  Cu  Cu12  1  0.49988377  0.16654089  0.50130414  1
  Cu  Cu13  1  0.49988444  0.49988456  0.50130387  1
  Cu  Cu14  1  0.49988209  0.83322632  0.50130418  1
  Cu  Cu15  1  0.83322442  0.16654021  0.50130461  1
  Cu  Cu16  1  0.83322628  0.49988226  0.50130417  1
  Cu  Cu17  1  0.83321647  0.83321659  0.50130570  1
  Cu  Cu18  1  0.04529208  0.04529190  0.59342633  1
  Cu  Cu19  1  0.04528985  0.37861216  0.59342619  1
  Cu  Cu20  1  0.04529541  0.71194427  0.59342611  1
  Cu  Cu21  1  0.37861204  0.04528992  0.59342622  1
  Cu  Cu22  1  0.37861970  0.37861974  0.59342083  1
  Cu  Cu23  1  0.37862432  0.71195271  0.59342231  1
  Cu  Cu24  1  0.71194418  0.04529561  0.59342615  1
  Cu  Cu25  1  0.71195245  0.37862455  0.59342231  1
  Cu  Cu26  1  0.71194734  0.71194744  0.59342590  1
