# generated using pymatgen
data_Cu2Se
_symmetry_space_group_name_H-M   'P 1'
_cell_length_a   8.09471283
_cell_length_b   8.09451676
_cell_length_c   26.54075200
_cell_angle_alpha   85.62693029
_cell_angle_beta   85.62705062
_cell_angle_gamma   59.99922007
_symmetry_Int_Tables_number   1
_chemical_formula_structural   Cu2Se
_chemical_formula_sum   'Cu24 Se12'
_cell_volume   1500.17856456
_cell_formula_units_Z   12
loop_
 _symmetry_equiv_pos_site_id
 _symmetry_equiv_pos_as_xyz
  1  'x, y, z'
loop_
 _atom_site_type_symbol
 _atom_site_label
 _atom_site_symmetry_multiplicity
 _atom_site_fract_x
 _atom_site_fract_y
 _atom_site_fract_z
 _atom_site_occupancy
  Cu  Cu0  1  0.26562200  0.26563000  0.40625100  1
  Cu  Cu1  1  0.26528631  0.76522584  0.40879278  1
  Cu  Cu2  1  0.76519871  0.26531384  0.40879278  1
  Cu  Cu3  1  0.76520620  0.76523309  0.40879005  1
  Cu  Cu4  1  0.10937300  0.10937800  0.34374900  1
  Cu  Cu5  1  0.10937400  0.60937800  0.34374900  1
  Cu  Cu6  1  0.60937400  0.10937800  0.34374900  1
  Cu  Cu7  1  0.60937400  0.60937800  0.34374900  1
  Cu  Cu8  1  0.07512849  0.07518925  0.54873725  1
  Cu  Cu9  1  0.07507938  0.57508772  0.54874133  1
  Cu  Cu10  1  0.57502273  0.07514307  0.54874067  1
  Cu  Cu11  1  0.57504198  0.57510444  0.54885984  1
  Cu  Cu12  1  0.42230790  0.42228785  0.46795952  1
  Cu  Cu13  1  0.42223033  0.92143728  0.46797123  1
  Cu  Cu14  1  0.92145668  0.42221081  0.46797045  1
  Cu  Cu15  1  0.92199596  0.92197741  0.46783362  1
  Cu  Cu16  1  0.39611520  0.39612325  0.62165195  1
  Cu  Cu17  1  0.39610355  0.89677156  0.62164119  1
  Cu  Cu18  1  0.89676163  0.39611328  0.62164141  1
  Cu  Cu19  1  0.89619234  0.89619938  0.62238737  1
  Cu  Cu20  1  0.23478710  0.23482775  0.59063535  1
  Cu  Cu21  1  0.23425040  0.73480011  0.59173384  1
  Cu  Cu22  1  0.73476219  0.23428795  0.59173381  1
  Cu  Cu23  1  0.73475132  0.73479120  0.59173180  1
  Se  Se24  1  0.43749700  0.43750300  0.37500000  1
  Se  Se25  1  0.43749700  0.93750300  0.37500000  1
  Se  Se26  1  0.93749700  0.43750300  0.37500000  1
  Se  Se27  1  0.93749700  0.93750300  0.37500000  1
  Se  Se28  1  0.24997606  0.24994393  0.50043048  1
  Se  Se29  1  0.24952615  0.74984772  0.50152089  1
  Se  Se30  1  0.74988219  0.24949156  0.50152093  1
  Se  Se31  1  0.74984956  0.74981508  0.50151741  1
  Se  Se32  1  0.05948716  0.05946796  0.64380507  1
  Se  Se33  1  0.05949548  0.55899098  0.64380954  1
  Se  Se34  1  0.55901218  0.05947470  0.64380930  1
  Se  Se35  1  0.55935059  0.55933124  0.64375040  1
