# generated using pymatgen
data_Pt
_symmetry_space_group_name_H-M   'P 1'
_cell_length_a   8.30563200
_cell_length_b   8.30548099
_cell_length_c   22.66204900
_cell_angle_alpha   86.50247764
_cell_angle_beta   89.99826160
_cell_angle_gamma   119.99933191
_symmetry_Int_Tables_number   1
_chemical_formula_structural   Pt
_chemical_formula_sum   Pt27
_cell_volume   1350.48407360
_cell_formula_units_Z   27
loop_
 _symmetry_equiv_pos_site_id
 _symmetry_equiv_pos_as_xyz
  1  'x, y, z'
loop_
 _atom_site_type_symbol
 _atom_site_label
 _atom_site_symmetry_multiplicity
 _atom_site_fract_x
 _atom_site_fract_y
 _atom_site_fract_z
 _atom_site_occupancy
  Pt  Pt0  1  0.06666700  0.13333400  0.40000000  1
  Pt  Pt1  1  0.06666700  0.46666700  0.40000000  1
  Pt  Pt2  1  0.06666700  0.80000100  0.40000000  1
  Pt  Pt3  1  0.40000000  0.13333400  0.40000000  1
  Pt  Pt4  1  0.40000000  0.46666700  0.40000000  1
  Pt  Pt5  1  0.40000000  0.80000100  0.40000000  1
  Pt  Pt6  1  0.73333400  0.13333400  0.40000000  1
  Pt  Pt7  1  0.73333400  0.46666700  0.40000000  1
  Pt  Pt8  1  0.73333400  0.80000100  0.40000000  1
  Pt  Pt9  1  0.16650094  0.99967040  0.50158903  1
  Pt  Pt10  1  0.16650106  0.33300620  0.50158944  1
  Pt  Pt11  1  0.16650089  0.66633702  0.50159027  1
  Pt  Pt12  1  0.49983289  0.99966975  0.50158907  1
  Pt  Pt13  1  0.49983391  0.33300508  0.50158803  1
  Pt  Pt14  1  0.49983212  0.66633723  0.50158968  1
  Pt  Pt15  1  0.83316706  0.99967119  0.50158928  1
  Pt  Pt16  1  0.83316885  0.33300573  0.50158884  1
  Pt  Pt17  1  0.83316795  0.66633739  0.50158907  1
  Pt  Pt18  1  0.26632543  0.19932917  0.60326058  1
  Pt  Pt19  1  0.26632332  0.53266128  0.60326813  1
  Pt  Pt20  1  0.26632349  0.86598141  0.60326508  1
  Pt  Pt21  1  0.59966644  0.19932803  0.60325901  1
  Pt  Pt22  1  0.59966275  0.53266390  0.60326144  1
  Pt  Pt23  1  0.59965693  0.86598838  0.60326387  1
  Pt  Pt24  1  0.93300092  0.19933432  0.60326351  1
  Pt  Pt25  1  0.93300465  0.53266231  0.60326573  1
  Pt  Pt26  1  0.93299726  0.86599081  0.60326283  1
