# generated using pymatgen
data_Ni
_symmetry_space_group_name_H-M   'P 1'
_cell_length_a   7.33151102
_cell_length_b   7.33233304
_cell_length_c   24.19342100
_cell_angle_alpha   89.99505366
_cell_angle_beta   89.99585023
_cell_angle_gamma   89.99674115
_symmetry_Int_Tables_number   1
_chemical_formula_structural   Ni
_chemical_formula_sum   Ni27
_cell_volume   1300.56766926
_cell_formula_units_Z   27
loop_
 _symmetry_equiv_pos_site_id
 _symmetry_equiv_pos_as_xyz
  1  'x, y, z'
loop_
 _atom_site_type_symbol
 _atom_site_label
 _atom_site_symmetry_multiplicity
 _atom_site_fract_x
 _atom_site_fract_y
 _atom_site_fract_z
 _atom_site_occupancy
  Ni  Ni0  1  0.99999291  0.33395865  0.53583600  1
  Ni  Ni1  1  0.99999168  0.66601435  0.53582370  1
  Ni  Ni2  1  0.99999242  0.99998891  0.53590784  1
  Ni  Ni3  1  0.33388180  0.33388178  0.53574240  1
  Ni  Ni4  1  0.33388224  0.66608860  0.53573153  1
  Ni  Ni5  1  0.33395731  0.99998892  0.53583595  1
  Ni  Ni6  1  0.66609318  0.33388235  0.53573150  1
  Ni  Ni7  1  0.66609349  0.66608879  0.53572038  1
  Ni  Ni8  1  0.66601897  0.99998771  0.53582367  1
  Ni  Ni9  1  0.00000100  0.33333200  0.39285700  1
  Ni  Ni10  1  0.00000100  0.66666500  0.39285700  1
  Ni  Ni11  1  0.00000100  0.99999800  0.39285700  1
  Ni  Ni12  1  0.33333400  0.33333200  0.39285700  1
  Ni  Ni13  1  0.33333400  0.66666500  0.39285700  1
  Ni  Ni14  1  0.33333400  0.99999800  0.39285700  1
  Ni  Ni15  1  0.66666800  0.33333200  0.39285700  1
  Ni  Ni16  1  0.66666800  0.66666500  0.39285700  1
  Ni  Ni17  1  0.66666800  0.99999800  0.39285700  1
  Ni  Ni18  1  0.16628443  0.16628602  0.46437230  1
  Ni  Ni19  1  0.16622603  0.49999065  0.46425934  1
  Ni  Ni20  1  0.16628539  0.83371085  0.46437944  1
  Ni  Ni21  1  0.49999322  0.16622739  0.46425900  1
  Ni  Ni22  1  0.49999410  0.49999157  0.46416572  1
  Ni  Ni23  1  0.49999306  0.83377024  0.46426694  1
  Ni  Ni24  1  0.83371834  0.16628702  0.46437951  1
  Ni  Ni25  1  0.83377757  0.49999052  0.46426721  1
  Ni  Ni26  1  0.83371706  0.83370961  0.46438654  1
