# generated using pymatgen
data_Rh
_symmetry_space_group_name_H-M   'P 1'
_cell_length_a   8.03675400
_cell_length_b   8.03670000
_cell_length_c   22.73128200
_cell_angle_alpha   89.99972196
_cell_angle_beta   89.99972196
_cell_angle_gamma   89.99991445
_symmetry_Int_Tables_number   1
_chemical_formula_structural   Rh
_chemical_formula_sum   Rh27
_cell_volume   1468.19033829
_cell_formula_units_Z   27
loop_
 _symmetry_equiv_pos_site_id
 _symmetry_equiv_pos_as_xyz
  1  'x, y, z'
loop_
 _atom_site_type_symbol
 _atom_site_label
 _atom_site_symmetry_multiplicity
 _atom_site_fract_x
 _atom_site_fract_y
 _atom_site_fract_z
 _atom_site_occupancy
  Rh  Rh0  1  0.99999525  0.99999553  0.45623081  1
  Rh  Rh1  1  0.99999531  0.33332913  0.45623208  1
  Rh  Rh2  1  0.99999523  0.66666186  0.45623282  1
  Rh  Rh3  1  0.33332906  0.99999587  0.45623258  1
  Rh  Rh4  1  0.33332934  0.33332880  0.45623412  1
  Rh  Rh5  1  0.33332899  0.66666162  0.45623479  1
  Rh  Rh6  1  0.66666170  0.99999576  0.45623204  1
  Rh  Rh7  1  0.66666152  0.33332903  0.45623362  1
  Rh  Rh8  1  0.66666203  0.66666151  0.45623429  1
  Rh  Rh9  1  0.16666700  0.16666700  0.37500000  1
  Rh  Rh10  1  0.16666700  0.50000000  0.37500000  1
  Rh  Rh11  1  0.16666700  0.83333300  0.37500000  1
  Rh  Rh12  1  0.50000000  0.16666700  0.37500000  1
  Rh  Rh13  1  0.50000000  0.50000000  0.37500000  1
  Rh  Rh14  1  0.50000000  0.83333300  0.37500000  1
  Rh  Rh15  1  0.83333300  0.16666700  0.37500000  1
  Rh  Rh16  1  0.83333300  0.50000000  0.37500000  1
  Rh  Rh17  1  0.83333300  0.83333300  0.37500000  1
  Rh  Rh18  1  0.16665814  0.16665654  0.53744717  1
  Rh  Rh19  1  0.16665788  0.49999206  0.53744771  1
  Rh  Rh20  1  0.16665593  0.83332743  0.53744790  1
  Rh  Rh21  1  0.49999201  0.16665901  0.53744786  1
  Rh  Rh22  1  0.49999301  0.49998999  0.53744900  1
  Rh  Rh23  1  0.49999232  0.83332679  0.53744747  1
  Rh  Rh24  1  0.83332589  0.16665711  0.53744673  1
  Rh  Rh25  1  0.83332530  0.49999232  0.53744779  1
  Rh  Rh26  1  0.83332777  0.83332660  0.53744767  1
