# generated using pymatgen
data_Au
_symmetry_space_group_name_H-M   'P 1'
_cell_length_a   8.57745306
_cell_length_b   8.57952124
_cell_length_c   25.48431000
_cell_angle_alpha   89.99453055
_cell_angle_beta   89.99330683
_cell_angle_gamma   96.00496057
_symmetry_Int_Tables_number   1
_chemical_formula_structural   Au
_chemical_formula_sum   Au27
_cell_volume   1865.11095498
_cell_formula_units_Z   27
loop_
 _symmetry_equiv_pos_site_id
 _symmetry_equiv_pos_as_xyz
  1  'x, y, z'
loop_
 _atom_site_type_symbol
 _atom_site_label
 _atom_site_symmetry_multiplicity
 _atom_site_fract_x
 _atom_site_fract_y
 _atom_site_fract_z
 _atom_site_occupancy
  Au  Au0  1  0.00000684  0.33334932  0.54433635  1
  Au  Au1  1  0.99994716  0.66660904  0.54434121  1
  Au  Au2  1  0.99998188  0.99998303  0.54432104  1
  Au  Au3  1  0.33334462  0.33334743  0.54435046  1
  Au  Au4  1  0.33333045  0.66662571  0.54435124  1
  Au  Au5  1  0.33334792  0.00000865  0.54433608  1
  Au  Au6  1  0.66662410  0.33333088  0.54435125  1
  Au  Au7  1  0.66660309  0.66660266  0.54434955  1
  Au  Au8  1  0.66660871  0.99994750  0.54434096  1
  Au  Au9  1  0.16653801  0.16653844  0.63018846  1
  Au  Au10  1  0.16658061  0.49991880  0.63020340  1
  Au  Au11  1  0.16660779  0.83331017  0.63018606  1
  Au  Au12  1  0.49991784  0.16658230  0.63020326  1
  Au  Au13  1  0.49994551  0.49994710  0.63021542  1
  Au  Au14  1  0.50001083  0.83334072  0.63020232  1
  Au  Au15  1  0.83330903  0.16661001  0.63018620  1
  Au  Au16  1  0.83333904  0.50001345  0.63020249  1
  Au  Au17  1  0.83336812  0.83337079  0.63018634  1
  Au  Au18  1  0.16666600  0.16666800  0.45833300  1
  Au  Au19  1  0.16666600  0.50000100  0.45833300  1
  Au  Au20  1  0.16666600  0.83333400  0.45833300  1
  Au  Au21  1  0.50000000  0.16666800  0.45833300  1
  Au  Au22  1  0.50000000  0.50000100  0.45833300  1
  Au  Au23  1  0.50000000  0.83333400  0.45833300  1
  Au  Au24  1  0.83333300  0.16666800  0.45833300  1
  Au  Au25  1  0.83333300  0.50000100  0.45833300  1
  Au  Au26  1  0.83333300  0.83333400  0.45833300  1
