# generated using pymatgen
data_Rh
_symmetry_space_group_name_H-M   'P 1'
_cell_length_a   8.03675400
_cell_length_b   8.03670000
_cell_length_c   22.73128200
_cell_angle_alpha   89.99972196
_cell_angle_beta   89.99972196
_cell_angle_gamma   89.99991445
_symmetry_Int_Tables_number   1
_chemical_formula_structural   Rh
_chemical_formula_sum   Rh27
_cell_volume   1468.19033829
_cell_formula_units_Z   27
loop_
 _symmetry_equiv_pos_site_id
 _symmetry_equiv_pos_as_xyz
  1  'x, y, z'
loop_
 _atom_site_type_symbol
 _atom_site_label
 _atom_site_symmetry_multiplicity
 _atom_site_fract_x
 _atom_site_fract_y
 _atom_site_fract_z
 _atom_site_occupancy
  Rh  Rh0  1  0.99999633  0.99999779  0.45626638  1
  Rh  Rh1  1  0.99999629  0.33332898  0.45626760  1
  Rh  Rh2  1  0.99999631  0.66666434  0.45626749  1
  Rh  Rh3  1  0.33332875  0.99999783  0.45626734  1
  Rh  Rh4  1  0.33332893  0.33332898  0.45626852  1
  Rh  Rh5  1  0.33332906  0.66666437  0.45626845  1
  Rh  Rh6  1  0.66666254  0.99999784  0.45626806  1
  Rh  Rh7  1  0.66666265  0.33332917  0.45626935  1
  Rh  Rh8  1  0.66666272  0.66666427  0.45626928  1
  Rh  Rh9  1  0.16666700  0.16666700  0.37500000  1
  Rh  Rh10  1  0.16666700  0.50000000  0.37500000  1
  Rh  Rh11  1  0.16666700  0.83333300  0.37500000  1
  Rh  Rh12  1  0.50000000  0.16666700  0.37500000  1
  Rh  Rh13  1  0.50000000  0.50000000  0.37500000  1
  Rh  Rh14  1  0.50000000  0.83333300  0.37500000  1
  Rh  Rh15  1  0.83333300  0.16666700  0.37500000  1
  Rh  Rh16  1  0.83333300  0.50000000  0.37500000  1
  Rh  Rh17  1  0.83333300  0.83333300  0.37500000  1
  Rh  Rh18  1  0.16665575  0.16665673  0.53757497  1
  Rh  Rh19  1  0.16665631  0.49999438  0.53757561  1
  Rh  Rh20  1  0.16665588  0.83333406  0.53757483  1
  Rh  Rh21  1  0.49999038  0.16665665  0.53757643  1
  Rh  Rh22  1  0.49999036  0.49999435  0.53757781  1
  Rh  Rh23  1  0.49999058  0.83333446  0.53757653  1
  Rh  Rh24  1  0.83333300  0.16665652  0.53757583  1
  Rh  Rh25  1  0.83333363  0.49999444  0.53757715  1
  Rh  Rh26  1  0.83333320  0.83333442  0.53757588  1
