# generated using pymatgen
data_MoS2
_symmetry_space_group_name_H-M   'P 1'
_cell_length_a   6.31973600
_cell_length_b   12.46268000
_cell_length_c   24.68128287
_cell_angle_alpha   90.00000000
_cell_angle_beta   93.66151225
_cell_angle_gamma   90.00000000
_symmetry_Int_Tables_number   1
_chemical_formula_structural   MoS2
_chemical_formula_sum   'Mo12 S24'
_cell_volume   1939.95071504
_cell_formula_units_Z   12
loop_
 _symmetry_equiv_pos_site_id
 _symmetry_equiv_pos_as_xyz
  1  'x, y, z'
loop_
 _atom_site_type_symbol
 _atom_site_label
 _atom_site_symmetry_multiplicity
 _atom_site_fract_x
 _atom_site_fract_y
 _atom_site_fract_z
 _atom_site_occupancy
  Mo  Mo0  1  0.34212400  0.25000000  0.37044000  1
  Mo  Mo1  1  0.84212400  0.25000000  0.37044000  1
  Mo  Mo2  1  0.10232000  0.75000000  0.40733800  1
  Mo  Mo3  1  0.60232000  0.75000000  0.40733800  1
  Mo  Mo4  1  0.11978347  0.24999811  0.48106636  1
  Mo  Mo5  1  0.61978345  0.24999812  0.48106633  1
  Mo  Mo6  1  0.38055987  0.74999986  0.52022453  1
  Mo  Mo7  1  0.88055925  0.74999986  0.52022456  1
  Mo  Mo8  1  0.39796142  0.24999799  0.59367852  1
  Mo  Mo9  1  0.89796080  0.24999799  0.59367851  1
  Mo  Mo10  1  0.15719436  0.74999241  0.62650428  1
  Mo  Mo11  1  0.65719291  0.74999242  0.62650417  1
  S  S12  1  0.10138600  0.37552900  0.40747300  1
  S  S13  1  0.60138600  0.37552900  0.40747300  1
  S  S14  1  0.34305100  0.87552500  0.37029900  1
  S  S15  1  0.84305100  0.87552500  0.37029900  1
  S  S16  1  0.10138600  0.12447100  0.40747300  1
  S  S17  1  0.60138600  0.12447100  0.40747300  1
  S  S18  1  0.34305100  0.62447500  0.37029900  1
  S  S19  1  0.84305100  0.62447500  0.37029900  1
  S  S20  1  0.37924017  0.37463694  0.51890077  1
  S  S21  1  0.87923990  0.37463700  0.51890075  1
  S  S22  1  0.12100856  0.87426730  0.48204275  1
  S  S23  1  0.62100867  0.87426709  0.48204284  1
  S  S24  1  0.37924017  0.12536197  0.51890204  1
  S  S25  1  0.87923993  0.12536193  0.51890202  1
  S  S26  1  0.12100841  0.62573131  0.48204319  1
  S  S27  1  0.62100850  0.62573151  0.48204329  1
  S  S28  1  0.15735438  0.37380297  0.63128130  1
  S  S29  1  0.65735424  0.37380322  0.63128096  1
  S  S30  1  0.39915191  0.87669792  0.59450377  1
  S  S31  1  0.89915212  0.87669749  0.59450399  1
  S  S32  1  0.15735367  0.12619000  0.63128226  1
  S  S33  1  0.65735353  0.12618975  0.63128192  1
  S  S34  1  0.39915103  0.62329203  0.59450214  1
  S  S35  1  0.89915125  0.62329246  0.59450236  1
