# generated using pymatgen
data_Rh
_symmetry_space_group_name_H-M   'P 1'
_cell_length_a   8.03672266
_cell_length_b   8.03669826
_cell_length_c   21.92791400
_cell_angle_alpha   86.49772645
_cell_angle_beta   86.49795137
_cell_angle_gamma   59.99991575
_symmetry_Int_Tables_number   1
_chemical_formula_structural   Rh
_chemical_formula_sum   Rh27
_cell_volume   1223.49202859
_cell_formula_units_Z   27
loop_
 _symmetry_equiv_pos_site_id
 _symmetry_equiv_pos_as_xyz
  1  'x, y, z'
loop_
 _atom_site_type_symbol
 _atom_site_label
 _atom_site_symmetry_multiplicity
 _atom_site_fract_x
 _atom_site_fract_y
 _atom_site_fract_z
 _atom_site_occupancy
  Rh  Rh0  1  0.06666700  0.06666700  0.40000000  1
  Rh  Rh1  1  0.06666700  0.40000000  0.40000000  1
  Rh  Rh2  1  0.06666700  0.73333300  0.40000000  1
  Rh  Rh3  1  0.40000000  0.06666700  0.40000000  1
  Rh  Rh4  1  0.40000000  0.40000000  0.40000000  1
  Rh  Rh5  1  0.40000000  0.73333300  0.40000000  1
  Rh  Rh6  1  0.73333300  0.06666700  0.40000000  1
  Rh  Rh7  1  0.73333300  0.40000000  0.40000000  1
  Rh  Rh8  1  0.73333300  0.73333300  0.40000000  1
  Rh  Rh9  1  0.16685505  0.16685454  0.49824892  1
  Rh  Rh10  1  0.16685463  0.50018822  0.49824893  1
  Rh  Rh11  1  0.16685459  0.83352121  0.49824894  1
  Rh  Rh12  1  0.50018890  0.16685404  0.49824902  1
  Rh  Rh13  1  0.50018848  0.50018764  0.49824899  1
  Rh  Rh14  1  0.50018882  0.83352115  0.49824907  1
  Rh  Rh15  1  0.83352158  0.16685409  0.49824908  1
  Rh  Rh16  1  0.83352160  0.50018819  0.49824907  1
  Rh  Rh17  1  0.83352143  0.83352110  0.49824909  1
  Rh  Rh18  1  0.26704677  0.26704477  0.59649047  1
  Rh  Rh19  1  0.26704607  0.60037888  0.59649087  1
  Rh  Rh20  1  0.26704642  0.93371199  0.59649066  1
  Rh  Rh21  1  0.60038075  0.26704423  0.59649072  1
  Rh  Rh22  1  0.60038051  0.60037857  0.59649060  1
  Rh  Rh23  1  0.60038093  0.93371136  0.59649028  1
  Rh  Rh24  1  0.93371344  0.26704479  0.59649059  1
  Rh  Rh25  1  0.93371280  0.60037929  0.59649039  1
  Rh  Rh26  1  0.93371281  0.93371147  0.59649066  1
