# generated using pymatgen
data_MoS2
_symmetry_space_group_name_H-M   'P 1'
_cell_length_a   6.31973600
_cell_length_b   12.46268000
_cell_length_c   24.68128287
_cell_angle_alpha   90.00000000
_cell_angle_beta   93.66151225
_cell_angle_gamma   90.00000000
_symmetry_Int_Tables_number   1
_chemical_formula_structural   MoS2
_chemical_formula_sum   'Mo12 S24'
_cell_volume   1939.95071504
_cell_formula_units_Z   12
loop_
 _symmetry_equiv_pos_site_id
 _symmetry_equiv_pos_as_xyz
  1  'x, y, z'
loop_
 _atom_site_type_symbol
 _atom_site_label
 _atom_site_symmetry_multiplicity
 _atom_site_fract_x
 _atom_site_fract_y
 _atom_site_fract_z
 _atom_site_occupancy
  Mo  Mo0  1  0.34212400  0.25000000  0.37044000  1
  Mo  Mo1  1  0.84212400  0.25000000  0.37044000  1
  Mo  Mo2  1  0.10232000  0.75000000  0.40733800  1
  Mo  Mo3  1  0.60232000  0.75000000  0.40733800  1
  Mo  Mo4  1  0.11994990  0.24999984  0.48160371  1
  Mo  Mo5  1  0.61995002  0.24999984  0.48160375  1
  Mo  Mo6  1  0.38069919  0.74999915  0.52070536  1
  Mo  Mo7  1  0.88069936  0.74999914  0.52070549  1
  Mo  Mo8  1  0.39825064  0.25000728  0.59506696  1
  Mo  Mo9  1  0.89825074  0.25000728  0.59506699  1
  Mo  Mo10  1  0.15747435  0.74999741  0.62698880  1
  Mo  Mo11  1  0.65747312  0.74999741  0.62698880  1
  S  S12  1  0.10138600  0.37552900  0.40747300  1
  S  S13  1  0.60138600  0.37552900  0.40747300  1
  S  S14  1  0.34305100  0.87552500  0.37029900  1
  S  S15  1  0.84305100  0.87552500  0.37029900  1
  S  S16  1  0.10138600  0.12447100  0.40747300  1
  S  S17  1  0.60138600  0.12447100  0.40747300  1
  S  S18  1  0.34305100  0.62447500  0.37029900  1
  S  S19  1  0.84305100  0.62447500  0.37029900  1
  S  S20  1  0.37946942  0.37429960  0.51967885  1
  S  S21  1  0.87946935  0.37429955  0.51967891  1
  S  S22  1  0.12110466  0.87404276  0.48247131  1
  S  S23  1  0.62110487  0.87404273  0.48247134  1
  S  S24  1  0.37947043  0.12570593  0.51968265  1
  S  S25  1  0.87947037  0.12570598  0.51968272  1
  S  S26  1  0.12110447  0.62595428  0.48247184  1
  S  S27  1  0.62110474  0.62595430  0.48247187  1
  S  S28  1  0.15762426  0.37368977  0.63263443  1
  S  S29  1  0.65762419  0.37368919  0.63263498  1
  S  S30  1  0.39944409  0.87666467  0.59507652  1
  S  S31  1  0.89944415  0.87666450  0.59507678  1
  S  S32  1  0.15762252  0.12631446  0.63263262  1
  S  S33  1  0.65762244  0.12631503  0.63263318  1
  S  S34  1  0.39944422  0.62332997  0.59507728  1
  S  S35  1  0.89944426  0.62333016  0.59507755  1
