# generated using pymatgen
data_Co
_symmetry_space_group_name_H-M   'P 1'
_cell_length_a   7.20020400
_cell_length_b   7.22369791
_cell_length_c   21.95056060
_cell_angle_alpha   90.70782154
_cell_angle_beta   92.74453361
_cell_angle_gamma   114.11633735
_symmetry_Int_Tables_number   1
_chemical_formula_structural   Co
_chemical_formula_sum   Co27
_cell_volume   1040.21162622
_cell_formula_units_Z   27
loop_
 _symmetry_equiv_pos_site_id
 _symmetry_equiv_pos_as_xyz
  1  'x, y, z'
loop_
 _atom_site_type_symbol
 _atom_site_label
 _atom_site_symmetry_multiplicity
 _atom_site_fract_x
 _atom_site_fract_y
 _atom_site_fract_z
 _atom_site_occupancy
  Co  Co0  1  0.28787700  0.18181700  0.40909100  1
  Co  Co1  1  0.28787700  0.51515000  0.40909100  1
  Co  Co2  1  0.28787700  0.84848400  0.40909100  1
  Co  Co3  1  0.62121100  0.18181700  0.40909100  1
  Co  Co4  1  0.62121100  0.51515000  0.40909100  1
  Co  Co5  1  0.62121100  0.84848400  0.40909100  1
  Co  Co6  1  0.95454400  0.18181700  0.40909100  1
  Co  Co7  1  0.95454400  0.51515000  0.40909100  1
  Co  Co8  1  0.95454400  0.84848400  0.40909100  1
  Co  Co9  1  0.18522804  0.98543635  0.50008694  1
  Co  Co10  1  0.18237853  0.31754786  0.49982943  1
  Co  Co11  1  0.18462273  0.65274715  0.50000739  1
  Co  Co12  1  0.51682273  0.98231653  0.50025506  1
  Co  Co13  1  0.51456528  0.31412305  0.50028935  1
  Co  Co14  1  0.51553446  0.64819284  0.50010485  1
  Co  Co15  1  0.85025814  0.98170401  0.50021022  1
  Co  Co16  1  0.84664189  0.31307608  0.49993204  1
  Co  Co17  1  0.84743393  0.64631158  0.49982712  1
  Co  Co18  1  0.07884767  0.11713084  0.59092057  1
  Co  Co19  1  0.07841585  0.45074406  0.59066248  1
  Co  Co20  1  0.07763398  0.78301917  0.59071853  1
  Co  Co21  1  0.41094288  0.11417338  0.59135218  1
  Co  Co22  1  0.41102311  0.44829886  0.59102877  1
  Co  Co23  1  0.41032960  0.78120235  0.59112571  1
  Co  Co24  1  0.74561708  0.11577717  0.59107558  1
  Co  Co25  1  0.74581009  0.44998255  0.59097542  1
  Co  Co26  1  0.74475203  0.78232966  0.59091539  1
