# generated using pymatgen
data_Au
_symmetry_space_group_name_H-M   'P 1'
_cell_length_a   8.57745306
_cell_length_b   8.57952124
_cell_length_c   25.48431000
_cell_angle_alpha   89.99453055
_cell_angle_beta   89.99330683
_cell_angle_gamma   96.00496057
_symmetry_Int_Tables_number   1
_chemical_formula_structural   Au
_chemical_formula_sum   Au27
_cell_volume   1865.11095498
_cell_formula_units_Z   27
loop_
 _symmetry_equiv_pos_site_id
 _symmetry_equiv_pos_as_xyz
  1  'x, y, z'
loop_
 _atom_site_type_symbol
 _atom_site_label
 _atom_site_symmetry_multiplicity
 _atom_site_fract_x
 _atom_site_fract_y
 _atom_site_fract_z
 _atom_site_occupancy
  Au  Au0  1  0.99999213  0.33333482  0.54358591  1
  Au  Au1  1  0.99995726  0.66662954  0.54359005  1
  Au  Au2  1  0.99997570  0.99997724  0.54356429  1
  Au  Au3  1  0.33334973  0.33335151  0.54361857  1
  Au  Au4  1  0.33334896  0.66661057  0.54360918  1
  Au  Au5  1  0.33333352  0.99999351  0.54358560  1
  Au  Au6  1  0.66660933  0.33335007  0.54360927  1
  Au  Au7  1  0.66660270  0.66660346  0.54361390  1
  Au  Au8  1  0.66662814  0.99995883  0.54358983  1
  Au  Au9  1  0.16647479  0.16647609  0.62857210  1
  Au  Au10  1  0.16658662  0.49986614  0.62858040  1
  Au  Au11  1  0.16663854  0.83328068  0.62859253  1
  Au  Au12  1  0.49986407  0.16658879  0.62858030  1
  Au  Au13  1  0.49996546  0.49996774  0.62860854  1
  Au  Au14  1  0.50004049  0.83333987  0.62858656  1
  Au  Au15  1  0.83327845  0.16664114  0.62859262  1
  Au  Au16  1  0.83333721  0.50004325  0.62858694  1
  Au  Au17  1  0.83341298  0.83341690  0.62857150  1
  Au  Au18  1  0.16666600  0.16666800  0.45833300  1
  Au  Au19  1  0.16666600  0.50000100  0.45833300  1
  Au  Au20  1  0.16666600  0.83333400  0.45833300  1
  Au  Au21  1  0.50000000  0.16666800  0.45833300  1
  Au  Au22  1  0.50000000  0.50000100  0.45833300  1
  Au  Au23  1  0.50000000  0.83333400  0.45833300  1
  Au  Au24  1  0.83333300  0.16666800  0.45833300  1
  Au  Au25  1  0.83333300  0.50000100  0.45833300  1
  Au  Au26  1  0.83333300  0.83333400  0.45833300  1
