# generated using pymatgen
data_CuMo3S4
_symmetry_space_group_name_H-M   'P 1'
_cell_length_a   6.46503600
_cell_length_b   6.38873881
_cell_length_c   27.95633100
_cell_angle_alpha   92.75453660
_cell_angle_beta   96.62629410
_cell_angle_gamma   95.95021841
_symmetry_Int_Tables_number   1
_chemical_formula_structural   CuMo3S4
_chemical_formula_sum   'Cu4 Mo12 S16'
_cell_volume   1138.69222190
_cell_formula_units_Z   4
loop_
 _symmetry_equiv_pos_site_id
 _symmetry_equiv_pos_as_xyz
  1  'x, y, z'
loop_
 _atom_site_type_symbol
 _atom_site_label
 _atom_site_symmetry_multiplicity
 _atom_site_fract_x
 _atom_site_fract_y
 _atom_site_fract_z
 _atom_site_occupancy
  Cu  Cu0  1  0.93743159  0.16093614  0.46092542  1
  Cu  Cu1  1  0.96923883  0.03404856  0.63086598  1
  Cu  Cu2  1  0.05968000  0.84039500  0.27086500  1
  Cu  Cu3  1  0.05142412  0.84092128  0.50338472  1
  Mo  Mo4  1  0.21521500  0.54428600  0.34262100  1
  Mo  Mo5  1  0.20770161  0.53853110  0.57638338  1
  Mo  Mo6  1  0.78073444  0.45587670  0.38872208  1
  Mo  Mo7  1  0.76862765  0.44916975  0.62086357  1
  Mo  Mo8  1  0.40517646  0.21763397  0.37522801  1
  Mo  Mo9  1  0.39939757  0.21722126  0.60879709  1
  Mo  Mo10  1  0.59495600  0.78352200  0.35564700  1
  Mo  Mo11  1  0.58231403  0.77562452  0.58737471  1
  Mo  Mo12  1  0.53596300  0.40601700  0.30007200  1
  Mo  Mo13  1  0.52755629  0.40529929  0.53165329  1
  Mo  Mo14  1  0.46107179  0.59346171  0.43192480  1
  Mo  Mo15  1  0.45575521  0.58010987  0.66061615  1
  S  S16  1  0.13938577  0.36826744  0.41666955  1
  S  S17  1  0.12548352  0.36894316  0.65258701  1
  S  S18  1  0.85836300  0.62855700  0.31503700  1
  S  S19  1  0.85051979  0.62893859  0.54702878  1
  S  S20  1  0.72038700  0.13919400  0.33837300  1
  S  S21  1  0.70841410  0.13075973  0.56860682  1
  S  S22  1  0.27773173  0.86070003  0.39335679  1
  S  S23  1  0.27193232  0.85768126  0.62827851  1
  S  S24  1  0.38464800  0.73460900  0.27877900  1
  S  S25  1  0.37265004  0.72995526  0.51061299  1
  S  S26  1  0.61281801  0.26550507  0.45276931  1
  S  S27  1  0.61885472  0.27641845  0.68720887  1
  S  S28  1  0.19156400  0.20303200  0.29614100  1
  S  S29  1  0.18540295  0.20120858  0.52866531  1
  S  S30  1  0.80524394  0.79752722  0.43558268  1
  S  S31  1  0.79874040  0.78014629  0.67041937  1
