# generated using pymatgen
data_Ni
_symmetry_space_group_name_H-M   'P 1'
_cell_length_a   7.33151102
_cell_length_b   7.33233304
_cell_length_c   24.19342100
_cell_angle_alpha   89.99505366
_cell_angle_beta   89.99585023
_cell_angle_gamma   89.99674115
_symmetry_Int_Tables_number   1
_chemical_formula_structural   Ni
_chemical_formula_sum   Ni27
_cell_volume   1300.56766926
_cell_formula_units_Z   27
loop_
 _symmetry_equiv_pos_site_id
 _symmetry_equiv_pos_as_xyz
  1  'x, y, z'
loop_
 _atom_site_type_symbol
 _atom_site_label
 _atom_site_symmetry_multiplicity
 _atom_site_fract_x
 _atom_site_fract_y
 _atom_site_fract_z
 _atom_site_occupancy
  Ni  Ni0  1  0.99999457  0.33387962  0.53605923  1
  Ni  Ni1  1  0.99999213  0.66609415  0.53604755  1
  Ni  Ni2  1  0.99999199  0.99998976  0.53610487  1
  Ni  Ni3  1  0.33381533  0.33380710  0.53598711  1
  Ni  Ni4  1  0.33381820  0.66616121  0.53597714  1
  Ni  Ni5  1  0.33388630  0.99999127  0.53605632  1
  Ni  Ni6  1  0.66615942  0.33381004  0.53597841  1
  Ni  Ni7  1  0.66615872  0.66616112  0.53596922  1
  Ni  Ni8  1  0.66609241  0.99998919  0.53604598  1
  Ni  Ni9  1  0.00000100  0.33333200  0.39285700  1
  Ni  Ni10  1  0.00000100  0.66666500  0.39285700  1
  Ni  Ni11  1  0.00000100  0.99999800  0.39285700  1
  Ni  Ni12  1  0.33333400  0.33333200  0.39285700  1
  Ni  Ni13  1  0.33333400  0.66666500  0.39285700  1
  Ni  Ni14  1  0.33333400  0.99999800  0.39285700  1
  Ni  Ni15  1  0.66666800  0.33333200  0.39285700  1
  Ni  Ni16  1  0.66666800  0.66666500  0.39285700  1
  Ni  Ni17  1  0.66666800  0.99999800  0.39285700  1
  Ni  Ni18  1  0.16634157  0.16634079  0.46444955  1
  Ni  Ni19  1  0.16629477  0.49998921  0.46435665  1
  Ni  Ni20  1  0.16634299  0.83365892  0.46445530  1
  Ni  Ni21  1  0.49999141  0.16629377  0.46435371  1
  Ni  Ni22  1  0.49999296  0.49999095  0.46427597  1
  Ni  Ni23  1  0.49999375  0.83370367  0.46436024  1
  Ni  Ni24  1  0.83366132  0.16634194  0.46445571  1
  Ni  Ni25  1  0.83370602  0.49999150  0.46436358  1
  Ni  Ni26  1  0.83365837  0.83365615  0.46446132  1
