# generated using pymatgen
data_Cu
_symmetry_space_group_name_H-M   'P 1'
_cell_length_a   7.56931204
_cell_length_b   6.17958932
_cell_length_c   26.20755800
_cell_angle_alpha   89.93253853
_cell_angle_beta   90.00615399
_cell_angle_gamma   90.00637696
_symmetry_Int_Tables_number   1
_chemical_formula_structural   Cu
_chemical_formula_sum   Cu27
_cell_volume   1225.86394768
_cell_formula_units_Z   27
loop_
 _symmetry_equiv_pos_site_id
 _symmetry_equiv_pos_as_xyz
  1  'x, y, z'
loop_
 _atom_site_type_symbol
 _atom_site_label
 _atom_site_symmetry_multiplicity
 _atom_site_fract_x
 _atom_site_fract_y
 _atom_site_fract_z
 _atom_site_occupancy
  Cu  Cu0  1  0.00000100  0.70833300  0.43055600  1
  Cu  Cu1  1  0.33333400  0.70833300  0.43055600  1
  Cu  Cu2  1  0.66666700  0.70833300  0.43055600  1
  Cu  Cu3  1  0.00000100  0.04166600  0.48611100  1
  Cu  Cu4  1  0.33333400  0.04166600  0.48611100  1
  Cu  Cu5  1  0.66666700  0.04166600  0.48611100  1
  Cu  Cu6  1  0.00001349  0.37054067  0.54278440  1
  Cu  Cu7  1  0.33335571  0.37054213  0.54278404  1
  Cu  Cu8  1  0.66667135  0.37054158  0.54278371  1
  Cu  Cu9  1  0.16666700  0.37500000  0.45833300  1
  Cu  Cu10  1  0.50000000  0.37500000  0.45833300  1
  Cu  Cu11  1  0.83333400  0.37500000  0.45833300  1
  Cu  Cu12  1  0.16666801  0.70791697  0.51385878  1
  Cu  Cu13  1  0.50001116  0.70791173  0.51385710  1
  Cu  Cu14  1  0.83335465  0.70791754  0.51385898  1
  Cu  Cu15  1  0.00002912  0.69681682  0.60021283  1
  Cu  Cu16  1  0.33337407  0.69680784  0.60020959  1
  Cu  Cu17  1  0.66668371  0.69680712  0.60020861  1
  Cu  Cu18  1  0.00002085  0.03564400  0.65162065  1
  Cu  Cu19  1  0.33337351  0.03563221  0.65161927  1
  Cu  Cu20  1  0.66666621  0.03563088  0.65161874  1
  Cu  Cu21  1  0.16667101  0.03093393  0.57050547  1
  Cu  Cu22  1  0.50001194  0.03092416  0.57050044  1
  Cu  Cu23  1  0.83335417  0.03093486  0.57050581  1
  Cu  Cu24  1  0.16669128  0.36825545  0.62721436  1
  Cu  Cu25  1  0.50002885  0.36824502  0.62721467  1
  Cu  Cu26  1  0.83336561  0.36825564  0.62721473  1
