# generated using pymatgen
data_FeMo3S4
_symmetry_space_group_name_H-M   'P 1'
_cell_length_a   6.48394610
_cell_length_b   6.41202525
_cell_length_c   27.90841600
_cell_angle_alpha   93.69337570
_cell_angle_beta   94.75362703
_cell_angle_gamma   97.43854579
_symmetry_Int_Tables_number   1
_chemical_formula_structural   FeMo3S4
_chemical_formula_sum   'Fe4 Mo12 S16'
_cell_volume   1143.25638445
_cell_formula_units_Z   4
loop_
 _symmetry_equiv_pos_site_id
 _symmetry_equiv_pos_as_xyz
  1  'x, y, z'
loop_
 _atom_site_type_symbol
 _atom_site_label
 _atom_site_symmetry_multiplicity
 _atom_site_fract_x
 _atom_site_fract_y
 _atom_site_fract_z
 _atom_site_occupancy
  Fe  Fe0  1  0.93349096  0.15577702  0.46490093  1
  Fe  Fe1  1  0.82927849  0.09833714  0.64767535  1
  Fe  Fe2  1  0.06524100  0.84263700  0.26375600  1
  Fe  Fe3  1  0.04847569  0.83683926  0.49726651  1
  Mo  Mo4  1  0.21943096  0.53864733  0.34335207  1
  Mo  Mo5  1  0.20022315  0.53285742  0.57629007  1
  Mo  Mo6  1  0.77987036  0.45963303  0.38762503  1
  Mo  Mo7  1  0.75893700  0.45662991  0.61878964  1
  Mo  Mo8  1  0.40679768  0.21786795  0.37488158  1
  Mo  Mo9  1  0.38859872  0.21013992  0.60790316  1
  Mo  Mo10  1  0.59189411  0.78223314  0.35576227  1
  Mo  Mo11  1  0.57080626  0.77487743  0.58797510  1
  Mo  Mo12  1  0.54135300  0.40905600  0.30082200  1
  Mo  Mo13  1  0.52456304  0.40541526  0.53224960  1
  Mo  Mo14  1  0.45424657  0.59079174  0.43069487  1
  Mo  Mo15  1  0.43834074  0.57697844  0.66089128  1
  S  S16  1  0.13000580  0.35898675  0.41677460  1
  S  S17  1  0.10930255  0.35289010  0.64956222  1
  S  S18  1  0.86842500  0.63937200  0.31349000  1
  S  S19  1  0.85020761  0.63866299  0.54625169  1
  S  S20  1  0.72301900  0.14241800  0.33608800  1
  S  S21  1  0.70344351  0.12957812  0.56628199  1
  S  S22  1  0.27576337  0.85738547  0.39467336  1
  S  S23  1  0.25918471  0.85060112  0.62953425  1
  S  S24  1  0.38478400  0.73178900  0.28021200  1
  S  S25  1  0.36628155  0.72479286  0.51180019  1
  S  S26  1  0.61241947  0.26818084  0.45137322  1
  S  S27  1  0.59845994  0.27454125  0.68668318  1
  S  S28  1  0.20162900  0.19284800  0.29629700  1
  S  S29  1  0.18412413  0.18967305  0.52811562  1
  S  S30  1  0.79567262  0.80567421  0.43523447  1
  S  S31  1  0.78190144  0.77502221  0.67122528  1
