# generated using pymatgen
data_Pt
_symmetry_space_group_name_H-M   'P 1'
_cell_length_a   8.30585400
_cell_length_b   8.30548202
_cell_length_c   23.49208800
_cell_angle_alpha   89.99751652
_cell_angle_beta   89.99900665
_cell_angle_gamma   89.99635752
_symmetry_Int_Tables_number   1
_chemical_formula_structural   Pt
_chemical_formula_sum   Pt27
_cell_volume   1620.58103859
_cell_formula_units_Z   27
loop_
 _symmetry_equiv_pos_site_id
 _symmetry_equiv_pos_as_xyz
  1  'x, y, z'
loop_
 _atom_site_type_symbol
 _atom_site_label
 _atom_site_symmetry_multiplicity
 _atom_site_fract_x
 _atom_site_fract_y
 _atom_site_fract_z
 _atom_site_occupancy
  Pt  Pt0  1  0.00000000  0.00000000  0.45833200  1
  Pt  Pt1  1  0.00000000  0.33333400  0.45833200  1
  Pt  Pt2  1  0.00000000  0.66666700  0.45833200  1
  Pt  Pt3  1  0.33333400  0.00000000  0.45833200  1
  Pt  Pt4  1  0.33333400  0.33333400  0.45833200  1
  Pt  Pt5  1  0.33333400  0.66666700  0.45833200  1
  Pt  Pt6  1  0.66666700  0.00000000  0.45833200  1
  Pt  Pt7  1  0.66666700  0.33333400  0.45833200  1
  Pt  Pt8  1  0.66666700  0.66666700  0.45833200  1
  Pt  Pt9  1  0.99999408  0.99998452  0.62364500  1
  Pt  Pt10  1  0.99999395  0.33331968  0.62364427  1
  Pt  Pt11  1  0.99999409  0.66665148  0.62364627  1
  Pt  Pt12  1  0.33332833  0.99998525  0.62364479  1
  Pt  Pt13  1  0.33332899  0.33331949  0.62364549  1
  Pt  Pt14  1  0.33332809  0.66665088  0.62364523  1
  Pt  Pt15  1  0.66666248  0.99998542  0.62364623  1
  Pt  Pt16  1  0.66666191  0.33331951  0.62364716  1
  Pt  Pt17  1  0.66666271  0.66665079  0.62364660  1
  Pt  Pt18  1  0.16666253  0.16665730  0.54097688  1
  Pt  Pt19  1  0.16666239  0.49999119  0.54097732  1
  Pt  Pt20  1  0.16666245  0.83332396  0.54097671  1
  Pt  Pt21  1  0.49999612  0.16665732  0.54097718  1
  Pt  Pt22  1  0.49999618  0.49999111  0.54097763  1
  Pt  Pt23  1  0.49999612  0.83332402  0.54097718  1
  Pt  Pt24  1  0.83332810  0.16665739  0.54097756  1
  Pt  Pt25  1  0.83332815  0.49999118  0.54097801  1
  Pt  Pt26  1  0.83332818  0.83332392  0.54097737  1
