# generated using pymatgen
data_Mo3Se4
_symmetry_space_group_name_H-M   'P 1'
_cell_length_a   6.61417350
_cell_length_b   6.61583473
_cell_length_c   28.23028900
_cell_angle_alpha   91.53841057
_cell_angle_beta   91.51120564
_cell_angle_gamma   91.52367391
_symmetry_Int_Tables_number   1
_chemical_formula_structural   Mo3Se4
_chemical_formula_sum   'Mo12 Se16'
_cell_volume   1233.97341125
_cell_formula_units_Z   4
loop_
 _symmetry_equiv_pos_site_id
 _symmetry_equiv_pos_as_xyz
  1  'x, y, z'
loop_
 _atom_site_type_symbol
 _atom_site_label
 _atom_site_symmetry_multiplicity
 _atom_site_fract_x
 _atom_site_fract_y
 _atom_site_fract_z
 _atom_site_occupancy
  Mo  Mo0  1  0.22064400  0.54530100  0.34680900  1
  Mo  Mo1  1  0.22731319  0.54683823  0.58335674  1
  Mo  Mo2  1  0.77541722  0.45413981  0.38691727  1
  Mo  Mo3  1  0.77044422  0.44908181  0.62222495  1
  Mo  Mo4  1  0.41442957  0.22588893  0.37781360  1
  Mo  Mo5  1  0.42097643  0.21908235  0.61279331  1
  Mo  Mo6  1  0.57898473  0.77525929  0.35689940  1
  Mo  Mo7  1  0.58219899  0.77416209  0.59160602  1
  Mo  Mo8  1  0.54531000  0.41281400  0.30171000  1
  Mo  Mo9  1  0.54695406  0.41686322  0.53562316  1
  Mo  Mo10  1  0.45245478  0.58546042  0.43350117  1
  Mo  Mo11  1  0.45625472  0.57607066  0.66638025  1
  Se  Se12  1  0.12423242  0.37927544  0.42606222  1
  Se  Se13  1  0.12245095  0.37386166  0.66091344  1
  Se  Se14  1  0.87245300  0.62115500  0.30846200  1
  Se  Se15  1  0.87546348  0.62320043  0.54420532  1
  Se  Se16  1  0.75031900  0.12757300  0.33876000  1
  Se  Se17  1  0.74925778  0.12552153  0.57112865  1
  Se  Se18  1  0.24633923  0.87280786  0.39701585  1
  Se  Se19  1  0.25327393  0.87193261  0.63601717  1
  Se  Se20  1  0.37880700  0.75023000  0.27992500  1
  Se  Se21  1  0.37519822  0.75130353  0.51517337  1
  Se  Se22  1  0.62235834  0.24873920  0.45428302  1
  Se  Se23  1  0.61282718  0.25425182  0.69226436  1
  Se  Se24  1  0.21114700  0.21116100  0.29951300  1
  Se  Se25  1  0.21794601  0.20952625  0.53531159  1
  Se  Se26  1  0.78369887  0.78769716  0.43517546  1
  Se  Se27  1  0.77367106  0.78925381  0.67063039  1
