# generated using pymatgen
data_Ag26Pt
_symmetry_space_group_name_H-M   'P 1'
_cell_length_a   8.60496519
_cell_length_b   8.60496881
_cell_length_c   23.47925300
_cell_angle_alpha   90.00483404
_cell_angle_beta   93.49762144
_cell_angle_gamma   119.99565775
_symmetry_Int_Tables_number   1
_chemical_formula_structural   Ag26Pt
_chemical_formula_sum   'Ag26 Pt1'
_cell_volume   1501.93330901
_cell_formula_units_Z   1
loop_
 _symmetry_equiv_pos_site_id
 _symmetry_equiv_pos_as_xyz
  1  'x, y, z'
loop_
 _atom_site_type_symbol
 _atom_site_label
 _atom_site_symmetry_multiplicity
 _atom_site_fract_x
 _atom_site_fract_y
 _atom_site_fract_z
 _atom_site_occupancy
  Ag  Ag0  1  0.20000000  0.26666700  0.40000000  1
  Ag  Ag1  1  0.20000000  0.60000000  0.40000000  1
  Ag  Ag2  1  0.20000000  0.93333300  0.40000000  1
  Ag  Ag3  1  0.53333300  0.26666700  0.40000000  1
  Ag  Ag4  1  0.53333300  0.60000000  0.40000000  1
  Ag  Ag5  1  0.53333300  0.93333300  0.40000000  1
  Ag  Ag6  1  0.86666700  0.26666700  0.40000000  1
  Ag  Ag7  1  0.86666700  0.60000000  0.40000000  1
  Ag  Ag8  1  0.86666700  0.93333300  0.40000000  1
  Ag  Ag9  1  0.33263125  0.16520552  0.50016527  1
  Ag  Ag10  1  0.33262682  0.50075413  0.50016604  1
  Ag  Ag11  1  0.33430089  0.83382137  0.50267253  1
  Ag  Ag12  1  0.66737479  0.16655415  0.50183096  1
  Ag  Ag13  1  0.66817397  0.50075004  0.50016461  1
  Ag  Ag14  1  0.66736903  0.83414053  0.50183136  1
  Ag  Ag15  1  0.99979458  0.16656327  0.50183198  1
  Ag  Ag16  1  0.00039890  0.49992270  0.50267080  1
  Ag  Ag17  1  0.00039791  0.83382554  0.50267094  1
  Ag  Ag18  1  0.13738507  0.07028625  0.60364516  1
  Ag  Ag19  1  0.13737193  0.40044489  0.60364568  1
  Ag  Ag20  1  0.13416170  0.73376477  0.60373384  1
  Ag  Ag21  1  0.46742626  0.07027900  0.60364428  1
  Ag  Ag22  1  0.46742082  0.73048200  0.60364442  1
  Ag  Ag23  1  0.80060037  0.06695834  0.60276505  1
  Ag  Ag24  1  0.79760411  0.40044771  0.60364539  1
  Ag  Ag25  1  0.79759761  0.73048140  0.60364287  1
  Pt  Pt26  1  0.46550212  0.39942348  0.59480709  1
