# generated using pymatgen
data_FeTe4Mo3
_symmetry_space_group_name_H-M   'P 1'
_cell_length_a   7.22312727
_cell_length_b   7.08682392
_cell_length_c   29.37250900
_cell_angle_alpha   91.57772794
_cell_angle_beta   98.12045943
_cell_angle_gamma   93.99332592
_symmetry_Int_Tables_number   1
_chemical_formula_structural   FeTe4Mo3
_chemical_formula_sum   'Fe4 Te16 Mo12'
_cell_volume   1483.79736813
_cell_formula_units_Z   4
loop_
 _symmetry_equiv_pos_site_id
 _symmetry_equiv_pos_as_xyz
  1  'x, y, z'
loop_
 _atom_site_type_symbol
 _atom_site_label
 _atom_site_symmetry_multiplicity
 _atom_site_fract_x
 _atom_site_fract_y
 _atom_site_fract_z
 _atom_site_occupancy
  Fe  Fe0  1  0.95174393  0.12463513  0.46946181  1
  Fe  Fe1  1  0.84695285  0.10472568  0.66854706  1
  Fe  Fe2  1  0.05693100  0.86054300  0.27656700  1
  Fe  Fe3  1  0.04882504  0.87837500  0.52231817  1
  Mo  Mo4  1  0.24897501  0.55194914  0.34887734  1
  Mo  Mo5  1  0.25158373  0.54588458  0.59710839  1
  Mo  Mo6  1  0.75185574  0.45037774  0.39642216  1
  Mo  Mo7  1  0.75981719  0.44521050  0.64097010  1
  Mo  Mo8  1  0.41597308  0.24949711  0.38217468  1
  Mo  Mo9  1  0.42734858  0.23819542  0.62894529  1
  Mo  Mo10  1  0.57848651  0.75205665  0.36278844  1
  Mo  Mo11  1  0.58750063  0.75089725  0.60940394  1
  Mo  Mo12  1  0.53260700  0.41261200  0.31013000  1
  Mo  Mo13  1  0.53803101  0.41698680  0.55546870  1
  Mo  Mo14  1  0.46400714  0.58748049  0.43622500  1
  Mo  Mo15  1  0.47545613  0.57145439  0.67781102  1
  Te  Te16  1  0.13170465  0.38076869  0.42711482  1
  Te  Te17  1  0.13905013  0.36173348  0.67716637  1
  Te  Te18  1  0.86624900  0.61870000  0.31855000  1
  Te  Te19  1  0.87368017  0.62229229  0.56512715  1
  Te  Te20  1  0.73106900  0.11857500  0.34560400  1
  Te  Te21  1  0.72966240  0.10890093  0.58256199  1
  Te  Te22  1  0.26733819  0.88188550  0.40052659  1
  Te  Te23  1  0.27988669  0.87425933  0.65100260  1
  Te  Te24  1  0.38690600  0.74931100  0.27459600  1
  Te  Te25  1  0.37910453  0.74730197  0.52197677  1
  Te  Te26  1  0.61703084  0.25215376  0.46949105  1
  Te  Te27  1  0.62951371  0.26135793  0.71832896  1
  Te  Te28  1  0.18432800  0.21398100  0.29715900  1
  Te  Te29  1  0.19363462  0.21989561  0.54380998  1
  Te  Te30  1  0.80972807  0.78081562  0.44871596  1
  Te  Te31  1  0.81869920  0.76578301  0.69952019  1
