# generated using pymatgen
data_Ag
_symmetry_space_group_name_H-M   'P 1'
_cell_length_a   8.60496519
_cell_length_b   8.60496881
_cell_length_c   23.47925300
_cell_angle_alpha   90.00483404
_cell_angle_beta   93.49762144
_cell_angle_gamma   119.99565775
_symmetry_Int_Tables_number   1
_chemical_formula_structural   Ag
_chemical_formula_sum   Ag27
_cell_volume   1501.93330901
_cell_formula_units_Z   27
loop_
 _symmetry_equiv_pos_site_id
 _symmetry_equiv_pos_as_xyz
  1  'x, y, z'
loop_
 _atom_site_type_symbol
 _atom_site_label
 _atom_site_symmetry_multiplicity
 _atom_site_fract_x
 _atom_site_fract_y
 _atom_site_fract_z
 _atom_site_occupancy
  Ag  Ag0  1  0.20000000  0.26666700  0.40000000  1
  Ag  Ag1  1  0.20000000  0.60000000  0.40000000  1
  Ag  Ag2  1  0.20000000  0.93333300  0.40000000  1
  Ag  Ag3  1  0.53333300  0.26666700  0.40000000  1
  Ag  Ag4  1  0.53333300  0.60000000  0.40000000  1
  Ag  Ag5  1  0.53333300  0.93333300  0.40000000  1
  Ag  Ag6  1  0.86666700  0.26666700  0.40000000  1
  Ag  Ag7  1  0.86666700  0.60000000  0.40000000  1
  Ag  Ag8  1  0.86666700  0.93333300  0.40000000  1
  Ag  Ag9  1  0.33354813  0.16677552  0.50098783  1
  Ag  Ag10  1  0.33355440  0.50010917  0.50098372  1
  Ag  Ag11  1  0.33355443  0.83344653  0.50098355  1
  Ag  Ag12  1  0.66687580  0.16676840  0.50098439  1
  Ag  Ag13  1  0.66687546  0.50011018  0.50098451  1
  Ag  Ag14  1  0.66688063  0.83344067  0.50098426  1
  Ag  Ag15  1  0.00021817  0.16677093  0.50098437  1
  Ag  Ag16  1  0.00021702  0.50010940  0.50098123  1
  Ag  Ag17  1  0.00021763  0.83344891  0.50098440  1
  Ag  Ag18  1  0.13376978  0.06688986  0.60199529  1
  Ag  Ag19  1  0.13377146  0.40022471  0.60199262  1
  Ag  Ag20  1  0.13377180  0.73355686  0.60199250  1
  Ag  Ag21  1  0.46709943  0.06688697  0.60199323  1
  Ag  Ag22  1  0.46709928  0.40022340  0.60199396  1
  Ag  Ag23  1  0.46710060  0.73355420  0.60199327  1
  Ag  Ag24  1  0.80043904  0.06688937  0.60199023  1
  Ag  Ag25  1  0.80043857  0.40022475  0.60198735  1
  Ag  Ag26  1  0.80043894  0.73355821  0.60199084  1
