# generated using pymatgen
data_Mo2C
_symmetry_space_group_name_H-M   'P 1'
_cell_length_a   4.68437300
_cell_length_b   5.20389200
_cell_length_c   30.20378500
_cell_angle_alpha   90.00027525
_cell_angle_beta   89.99949852
_cell_angle_gamma   90.00012111
_symmetry_Int_Tables_number   1
_chemical_formula_structural   Mo2C
_chemical_formula_sum   'Mo12 C6'
_cell_volume   736.27679646
_cell_formula_units_Z   6
loop_
 _symmetry_equiv_pos_site_id
 _symmetry_equiv_pos_as_xyz
  1  'x, y, z'
loop_
 _atom_site_type_symbol
 _atom_site_label
 _atom_site_symmetry_multiplicity
 _atom_site_fract_x
 _atom_site_fract_y
 _atom_site_fract_z
 _atom_site_occupancy
  Mo  Mo0  1  0.23970623  0.08578032  0.47358343  1
  Mo  Mo1  1  0.74571300  0.92137600  0.32559700  1
  Mo  Mo2  1  0.25429200  0.57864400  0.32559900  1
  Mo  Mo3  1  0.76018823  0.41411844  0.47358581  1
  Mo  Mo4  1  0.24630131  0.58290648  0.42460612  1
  Mo  Mo5  1  0.74571400  0.42136300  0.37440200  1
  Mo  Mo6  1  0.25428000  0.07863200  0.37440000  1
  Mo  Mo7  1  0.75361387  0.91699941  0.42460712  1
  Mo  Mo8  1  0.73392937  0.92122529  0.52613305  1
  Mo  Mo9  1  0.26594180  0.57863575  0.52613358  1
  Mo  Mo10  1  0.73694074  0.45117349  0.56743373  1
  Mo  Mo11  1  0.26290605  0.04868979  0.56743337  1
  C  C12  1  0.49994304  0.74994369  0.47444044  1
  C  C13  1  0.00000200  0.25000000  0.32540000  1
  C  C14  1  0.49997559  0.24996371  0.42499125  1
  C  C15  1  0.00000900  0.75000600  0.37460000  1
  C  C16  1  0.99993415  0.24992953  0.52685162  1
  C  C17  1  0.99993381  0.74992335  0.57692904  1
