# generated using pymatgen
data_FeTe4Mo3
_symmetry_space_group_name_H-M   'P 1'
_cell_length_a   7.22312727
_cell_length_b   7.08682392
_cell_length_c   29.37250900
_cell_angle_alpha   91.57772794
_cell_angle_beta   98.12045943
_cell_angle_gamma   93.99332592
_symmetry_Int_Tables_number   1
_chemical_formula_structural   FeTe4Mo3
_chemical_formula_sum   'Fe4 Te16 Mo12'
_cell_volume   1483.79736813
_cell_formula_units_Z   4
loop_
 _symmetry_equiv_pos_site_id
 _symmetry_equiv_pos_as_xyz
  1  'x, y, z'
loop_
 _atom_site_type_symbol
 _atom_site_label
 _atom_site_symmetry_multiplicity
 _atom_site_fract_x
 _atom_site_fract_y
 _atom_site_fract_z
 _atom_site_occupancy
  Fe  Fe0  1  0.95143775  0.12571879  0.46954799  1
  Fe  Fe1  1  0.84740765  0.10665583  0.66868323  1
  Fe  Fe2  1  0.05693100  0.86054300  0.27656700  1
  Fe  Fe3  1  0.04887796  0.88016093  0.52233759  1
  Mo  Mo4  1  0.24914819  0.55187142  0.34890949  1
  Mo  Mo5  1  0.25174054  0.54722833  0.59722771  1
  Mo  Mo6  1  0.75189326  0.45047553  0.39645945  1
  Mo  Mo7  1  0.75988038  0.44687424  0.64113074  1
  Mo  Mo8  1  0.41615430  0.24945305  0.38221741  1
  Mo  Mo9  1  0.42733887  0.23990282  0.62910699  1
  Mo  Mo10  1  0.57867487  0.75196840  0.36279166  1
  Mo  Mo11  1  0.58743652  0.75237039  0.60941809  1
  Mo  Mo12  1  0.53260700  0.41261200  0.31013000  1
  Mo  Mo13  1  0.53815764  0.41817524  0.55561477  1
  Mo  Mo14  1  0.46422151  0.58783448  0.43626766  1
  Mo  Mo15  1  0.47541933  0.57310144  0.67783683  1
  Te  Te16  1  0.13192348  0.38126521  0.42709223  1
  Te  Te17  1  0.13912519  0.36350025  0.67737793  1
  Te  Te18  1  0.86624900  0.61870000  0.31855000  1
  Te  Te19  1  0.87375470  0.62366464  0.56524428  1
  Te  Te20  1  0.73106900  0.11857500  0.34560400  1
  Te  Te21  1  0.72961335  0.11037131  0.58274504  1
  Te  Te22  1  0.26758438  0.88189363  0.40055661  1
  Te  Te23  1  0.27982931  0.87582705  0.65106654  1
  Te  Te24  1  0.38690600  0.74931100  0.27459600  1
  Te  Te25  1  0.37920223  0.74826205  0.52199440  1
  Te  Te26  1  0.61665649  0.25268973  0.46959207  1
  Te  Te27  1  0.62960839  0.26319977  0.71851357  1
  Te  Te28  1  0.18432800  0.21398100  0.29715900  1
  Te  Te29  1  0.19369073  0.22127671  0.54392716  1
  Te  Te30  1  0.80974251  0.78156587  0.44872312  1
  Te  Te31  1  0.81859434  0.76775200  0.69963203  1
