# generated using pymatgen
data_Pd
_symmetry_space_group_name_H-M   'P 1'
_cell_length_a   8.25688963
_cell_length_b   8.25682385
_cell_length_c   22.52889700
_cell_angle_alpha   86.49742100
_cell_angle_beta   86.49797035
_cell_angle_gamma   59.99972739
_symmetry_Int_Tables_number   1
_chemical_formula_structural   Pd
_chemical_formula_sum   Pd27
_cell_volume   1326.83127031
_cell_formula_units_Z   27
loop_
 _symmetry_equiv_pos_site_id
 _symmetry_equiv_pos_as_xyz
  1  'x, y, z'
loop_
 _atom_site_type_symbol
 _atom_site_label
 _atom_site_symmetry_multiplicity
 _atom_site_fract_x
 _atom_site_fract_y
 _atom_site_fract_z
 _atom_site_occupancy
  Pd  Pd0  1  0.06666700  0.06666600  0.40000000  1
  Pd  Pd1  1  0.06666700  0.39999900  0.40000000  1
  Pd  Pd2  1  0.06666700  0.73333300  0.40000000  1
  Pd  Pd3  1  0.40000000  0.06666600  0.40000000  1
  Pd  Pd4  1  0.40000000  0.39999900  0.40000000  1
  Pd  Pd5  1  0.40000000  0.73333300  0.40000000  1
  Pd  Pd6  1  0.73333300  0.06666600  0.40000000  1
  Pd  Pd7  1  0.73333300  0.39999900  0.40000000  1
  Pd  Pd8  1  0.73333300  0.73333300  0.40000000  1
  Pd  Pd9  1  0.16646200  0.16645944  0.50172901  1
  Pd  Pd10  1  0.16646208  0.49979261  0.50172897  1
  Pd  Pd11  1  0.16646216  0.83312591  0.50172902  1
  Pd  Pd12  1  0.49979545  0.16645940  0.50172886  1
  Pd  Pd13  1  0.49979558  0.49979254  0.50172875  1
  Pd  Pd14  1  0.49979566  0.83312577  0.50172897  1
  Pd  Pd15  1  0.83312870  0.16645943  0.50172886  1
  Pd  Pd16  1  0.83312875  0.49979256  0.50172882  1
  Pd  Pd17  1  0.83312883  0.83312580  0.50172895  1
  Pd  Pd18  1  0.26623041  0.26622415  0.60362889  1
  Pd  Pd19  1  0.26623065  0.59955683  0.60362886  1
  Pd  Pd20  1  0.26623042  0.93289040  0.60362868  1
  Pd  Pd21  1  0.59956355  0.26622416  0.60362886  1
  Pd  Pd22  1  0.59956387  0.59955668  0.60362880  1
  Pd  Pd23  1  0.59956384  0.93289057  0.60362877  1
  Pd  Pd24  1  0.93289635  0.26622433  0.60362886  1
  Pd  Pd25  1  0.93289677  0.59955710  0.60362900  1
  Pd  Pd26  1  0.93289667  0.93289067  0.60362884  1
