# generated using pymatgen
data_Ag
_symmetry_space_group_name_H-M   'P 1'
_cell_length_a   8.60517300
_cell_length_b   8.60496305
_cell_length_c   24.34014600
_cell_angle_alpha   89.99904118
_cell_angle_beta   89.99896131
_cell_angle_gamma   90.00613242
_symmetry_Int_Tables_number   1
_chemical_formula_structural   Ag
_chemical_formula_sum   Ag27
_cell_volume   1802.31954385
_cell_formula_units_Z   27
loop_
 _symmetry_equiv_pos_site_id
 _symmetry_equiv_pos_as_xyz
  1  'x, y, z'
loop_
 _atom_site_type_symbol
 _atom_site_label
 _atom_site_symmetry_multiplicity
 _atom_site_fract_x
 _atom_site_fract_y
 _atom_site_fract_z
 _atom_site_occupancy
  Ag  Ag0  1  0.33333300  0.00000000  0.45833300  1
  Ag  Ag1  1  0.33333300  0.33333300  0.45833300  1
  Ag  Ag2  1  0.33333300  0.66666700  0.45833300  1
  Ag  Ag3  1  0.66666700  0.00000000  0.45833300  1
  Ag  Ag4  1  0.66666700  0.33333300  0.45833300  1
  Ag  Ag5  1  0.66666700  0.66666700  0.45833300  1
  Ag  Ag6  1  0.00000000  0.00000000  0.45833300  1
  Ag  Ag7  1  0.00000000  0.33333300  0.45833300  1
  Ag  Ag8  1  0.00000000  0.66666700  0.45833300  1
  Ag  Ag9  1  0.33336564  0.99999601  0.63010775  1
  Ag  Ag10  1  0.33336224  0.33336170  0.63008963  1
  Ag  Ag11  1  0.33336230  0.66662944  0.63008912  1
  Ag  Ag12  1  0.66662436  0.99999577  0.63010734  1
  Ag  Ag13  1  0.66662771  0.33336188  0.63008881  1
  Ag  Ag14  1  0.66662784  0.66662945  0.63008867  1
  Ag  Ag15  1  0.99999534  0.99999579  0.63011036  1
  Ag  Ag16  1  0.99999544  0.33336525  0.63010497  1
  Ag  Ag17  1  0.99999521  0.66662609  0.63010470  1
  Ag  Ag18  1  0.16664491  0.16664273  0.54428408  1
  Ag  Ag19  1  0.16664282  0.49999816  0.54426797  1
  Ag  Ag20  1  0.16664488  0.83335394  0.54428425  1
  Ag  Ag21  1  0.49999800  0.16664053  0.54426809  1
  Ag  Ag22  1  0.49999789  0.49999807  0.54425208  1
  Ag  Ag23  1  0.49999811  0.83335627  0.54426814  1
  Ag  Ag24  1  0.83335153  0.16664262  0.54428420  1
  Ag  Ag25  1  0.83335378  0.49999826  0.54426801  1
  Ag  Ag26  1  0.83335153  0.83335402  0.54428437  1
