# generated using pymatgen
data_Pd
_symmetry_space_group_name_H-M   'P 1'
_cell_length_a   8.25688963
_cell_length_b   8.25682385
_cell_length_c   22.52889700
_cell_angle_alpha   86.49742100
_cell_angle_beta   86.49797035
_cell_angle_gamma   59.99972739
_symmetry_Int_Tables_number   1
_chemical_formula_structural   Pd
_chemical_formula_sum   Pd27
_cell_volume   1326.83127031
_cell_formula_units_Z   27
loop_
 _symmetry_equiv_pos_site_id
 _symmetry_equiv_pos_as_xyz
  1  'x, y, z'
loop_
 _atom_site_type_symbol
 _atom_site_label
 _atom_site_symmetry_multiplicity
 _atom_site_fract_x
 _atom_site_fract_y
 _atom_site_fract_z
 _atom_site_occupancy
  Pd  Pd0  1  0.06666700  0.06666600  0.40000000  1
  Pd  Pd1  1  0.06666700  0.39999900  0.40000000  1
  Pd  Pd2  1  0.06666700  0.73333300  0.40000000  1
  Pd  Pd3  1  0.40000000  0.06666600  0.40000000  1
  Pd  Pd4  1  0.40000000  0.39999900  0.40000000  1
  Pd  Pd5  1  0.40000000  0.73333300  0.40000000  1
  Pd  Pd6  1  0.73333300  0.06666600  0.40000000  1
  Pd  Pd7  1  0.73333300  0.39999900  0.40000000  1
  Pd  Pd8  1  0.73333300  0.73333300  0.40000000  1
  Pd  Pd9  1  0.16641401  0.16641175  0.50207906  1
  Pd  Pd10  1  0.16641408  0.49974502  0.50207921  1
  Pd  Pd11  1  0.16641428  0.83307814  0.50207871  1
  Pd  Pd12  1  0.49974784  0.16641159  0.50207902  1
  Pd  Pd13  1  0.49974791  0.49974470  0.50207905  1
  Pd  Pd14  1  0.49974806  0.83307792  0.50207835  1
  Pd  Pd15  1  0.83308181  0.16641110  0.50208001  1
  Pd  Pd16  1  0.83308183  0.49974417  0.50207985  1
  Pd  Pd17  1  0.83308213  0.83307742  0.50207949  1
  Pd  Pd18  1  0.26614021  0.26613358  0.60426442  1
  Pd  Pd19  1  0.26614001  0.59946982  0.60426454  1
  Pd  Pd20  1  0.26614111  0.93280032  0.60426410  1
  Pd  Pd21  1  0.59947415  0.26613461  0.60426399  1
  Pd  Pd22  1  0.59947286  0.59946975  0.60426404  1
  Pd  Pd23  1  0.59947371  0.93279985  0.60426340  1
  Pd  Pd24  1  0.93281103  0.26613208  0.60426613  1
  Pd  Pd25  1  0.93280937  0.59946698  0.60426593  1
  Pd  Pd26  1  0.93281168  0.93279846  0.60426558  1
