# generated using pymatgen
data_Ag
_symmetry_space_group_name_H-M   'P 1'
_cell_length_a   8.60496519
_cell_length_b   8.60496881
_cell_length_c   23.47925300
_cell_angle_alpha   90.00483404
_cell_angle_beta   93.49762144
_cell_angle_gamma   119.99565775
_symmetry_Int_Tables_number   1
_chemical_formula_structural   Ag
_chemical_formula_sum   Ag27
_cell_volume   1501.93330901
_cell_formula_units_Z   27
loop_
 _symmetry_equiv_pos_site_id
 _symmetry_equiv_pos_as_xyz
  1  'x, y, z'
loop_
 _atom_site_type_symbol
 _atom_site_label
 _atom_site_symmetry_multiplicity
 _atom_site_fract_x
 _atom_site_fract_y
 _atom_site_fract_z
 _atom_site_occupancy
  Ag  Ag0  1  0.20000000  0.26666700  0.40000000  1
  Ag  Ag1  1  0.20000000  0.60000000  0.40000000  1
  Ag  Ag2  1  0.20000000  0.93333300  0.40000000  1
  Ag  Ag3  1  0.53333300  0.26666700  0.40000000  1
  Ag  Ag4  1  0.53333300  0.60000000  0.40000000  1
  Ag  Ag5  1  0.53333300  0.93333300  0.40000000  1
  Ag  Ag6  1  0.86666700  0.26666700  0.40000000  1
  Ag  Ag7  1  0.86666700  0.60000000  0.40000000  1
  Ag  Ag8  1  0.86666700  0.93333300  0.40000000  1
  Ag  Ag9  1  0.33369517  0.16685029  0.50167337  1
  Ag  Ag10  1  0.33370144  0.50018395  0.50167228  1
  Ag  Ag11  1  0.33370156  0.83352098  0.50167213  1
  Ag  Ag12  1  0.66702621  0.16684511  0.50167115  1
  Ag  Ag13  1  0.66702521  0.50018544  0.50167178  1
  Ag  Ag14  1  0.66703098  0.83351683  0.50167268  1
  Ag  Ag15  1  0.00036796  0.16684677  0.50167315  1
  Ag  Ag16  1  0.00036523  0.50018450  0.50167179  1
  Ag  Ag17  1  0.00036671  0.83352463  0.50167387  1
  Ag  Ag18  1  0.13408128  0.06704988  0.60341150  1
  Ag  Ag19  1  0.13408680  0.40037781  0.60341602  1
  Ag  Ag20  1  0.13408908  0.73372876  0.60341606  1
  Ag  Ag21  1  0.46740746  0.06704525  0.60340866  1
  Ag  Ag22  1  0.46740547  0.40037823  0.60341032  1
  Ag  Ag23  1  0.46741662  0.73371777  0.60341193  1
  Ag  Ag24  1  0.80074014  0.06703775  0.60340967  1
  Ag  Ag25  1  0.80073925  0.40037782  0.60341207  1
  Ag  Ag26  1  0.80074025  0.73372003  0.60341102  1
