# generated using pymatgen
data_Au
_symmetry_space_group_name_H-M   'P 1'
_cell_length_a   8.57606266
_cell_length_b   8.57606266
_cell_length_c   23.65109797
_cell_angle_alpha   88.12641697
_cell_angle_beta   88.12641697
_cell_angle_gamma   63.40130658
_symmetry_Int_Tables_number   1
_chemical_formula_structural   Au
_chemical_formula_sum   Au27
_cell_volume   1554.26011481
_cell_formula_units_Z   27
loop_
 _symmetry_equiv_pos_site_id
 _symmetry_equiv_pos_as_xyz
  1  'x, y, z'
loop_
 _atom_site_type_symbol
 _atom_site_label
 _atom_site_symmetry_multiplicity
 _atom_site_fract_x
 _atom_site_fract_y
 _atom_site_fract_z
 _atom_site_occupancy
  Au  Au0  1  0.20852283  0.20852264  0.60622144  1
  Au  Au1  1  0.20861277  0.54186311  0.60623651  1
  Au  Au2  1  0.20847877  0.87515335  0.60621842  1
  Au  Au3  1  0.54186373  0.20861273  0.60623647  1
  Au  Au4  1  0.54190629  0.54190570  0.60627249  1
  Au  Au5  1  0.54183622  0.87524592  0.60623965  1
  Au  Au6  1  0.87515292  0.20847946  0.60621839  1
  Au  Au7  1  0.87524549  0.54183613  0.60623967  1
  Au  Au8  1  0.87516678  0.87516807  0.60621398  1
  Au  Au9  1  0.00220322  0.33556226  0.50324275  1
  Au  Au10  1  0.00231953  0.66898054  0.50327567  1
  Au  Au11  1  0.00217708  0.00217889  0.50327133  1
  Au  Au12  1  0.33557496  0.33557640  0.50325552  1
  Au  Au13  1  0.33557160  0.66889380  0.50327718  1
  Au  Au14  1  0.33556124  0.00220540  0.50324246  1
  Au  Au15  1  0.66889481  0.33557163  0.50327739  1
  Au  Au16  1  0.66897835  0.66897582  0.50326615  1
  Au  Au17  1  0.66898221  0.00232031  0.50327564  1
  Au  Au18  1  0.13333300  0.13333300  0.40000000  1
  Au  Au19  1  0.13333300  0.46666600  0.40000000  1
  Au  Au20  1  0.13333300  0.80000000  0.40000000  1
  Au  Au21  1  0.46666600  0.13333300  0.40000000  1
  Au  Au22  1  0.46666700  0.46666700  0.40000000  1
  Au  Au23  1  0.46666700  0.80000000  0.40000000  1
  Au  Au24  1  0.80000000  0.13333300  0.40000000  1
  Au  Au25  1  0.80000000  0.46666700  0.40000000  1
  Au  Au26  1  0.80000000  0.80000000  0.40000000  1
