# generated using pymatgen
data_Te4Mo3
_symmetry_space_group_name_H-M   'P 1'
_cell_length_a   7.04082001
_cell_length_b   7.04195269
_cell_length_c   29.08263700
_cell_angle_alpha   92.42233475
_cell_angle_beta   92.43396473
_cell_angle_gamma   92.45457226
_symmetry_Int_Tables_number   1
_chemical_formula_structural   Te4Mo3
_chemical_formula_sum   'Te16 Mo12'
_cell_volume   1437.92269216
_cell_formula_units_Z   4
loop_
 _symmetry_equiv_pos_site_id
 _symmetry_equiv_pos_as_xyz
  1  'x, y, z'
loop_
 _atom_site_type_symbol
 _atom_site_label
 _atom_site_symmetry_multiplicity
 _atom_site_fract_x
 _atom_site_fract_y
 _atom_site_fract_z
 _atom_site_occupancy
  Mo  Mo0  1  0.24438258  0.54837081  0.35214841  1
  Mo  Mo1  1  0.24379526  0.54529528  0.59454203  1
  Mo  Mo2  1  0.75582440  0.45630103  0.39038002  1
  Mo  Mo3  1  0.75690825  0.45353645  0.63275871  1
  Mo  Mo4  1  0.41778216  0.24496015  0.38160222  1
  Mo  Mo5  1  0.42374671  0.24085202  0.62386517  1
  Mo  Mo6  1  0.57721285  0.75790579  0.36118023  1
  Mo  Mo7  1  0.58064234  0.75712453  0.60338316  1
  Mo  Mo8  1  0.54335900  0.41937700  0.30833700  1
  Mo  Mo9  1  0.54330461  0.42114013  0.54926179  1
  Mo  Mo10  1  0.45531378  0.58017448  0.43540129  1
  Mo  Mo11  1  0.45245024  0.57641934  0.67393133  1
  Te  Te12  1  0.11549137  0.37704509  0.43171976  1
  Te  Te13  1  0.11685969  0.36835677  0.67471532  1
  Te  Te14  1  0.88219500  0.62512800  0.31051700  1
  Te  Te15  1  0.88460889  0.62373428  0.55359572  1
  Te  Te16  1  0.74986000  0.11788600  0.34077800  1
  Te  Te17  1  0.74822989  0.11698419  0.58156709  1
  Te  Te18  1  0.25188493  0.88379711  0.40355230  1
  Te  Te19  1  0.25366399  0.88186505  0.64806969  1
  Te  Te20  1  0.37496100  0.74994600  0.27852400  1
  Te  Te21  1  0.37456611  0.75264233  0.52158988  1
  Te  Te22  1  0.62527071  0.24859206  0.46339182  1
  Te  Te23  1  0.62277573  0.26544426  0.70864049  1
  Te  Te24  1  0.20510400  0.20534500  0.29972100  1
  Te  Te25  1  0.20828374  0.20555227  0.54249300  1
  Te  Te26  1  0.79185225  0.79342257  0.44306890  1
  Te  Te27  1  0.78247663  0.79135090  0.68712369  1
