# generated using pymatgen
data_Fe(Mo3S4)2
_symmetry_space_group_name_H-M   'P 1'
_cell_length_a   6.45357383
_cell_length_b   6.40729292
_cell_length_c   27.84326400
_cell_angle_alpha   93.27559587
_cell_angle_beta   96.42128096
_cell_angle_gamma   96.53695481
_symmetry_Int_Tables_number   1
_chemical_formula_structural   Fe(Mo3S4)2
_chemical_formula_sum   'Fe2 Mo12 S16'
_cell_volume   1133.80606000
_cell_formula_units_Z   2
loop_
 _symmetry_equiv_pos_site_id
 _symmetry_equiv_pos_as_xyz
  1  'x, y, z'
loop_
 _atom_site_type_symbol
 _atom_site_label
 _atom_site_symmetry_multiplicity
 _atom_site_fract_x
 _atom_site_fract_y
 _atom_site_fract_z
 _atom_site_occupancy
  Fe  Fe0  1  0.94414835  0.15284137  0.46064285  1
  Fe  Fe1  1  0.86257627  0.10436067  0.64740406  1
  Mo  Mo2  1  0.21324400  0.54241800  0.34209900  1
  Mo  Mo3  1  0.22087820  0.54514491  0.57611489  1
  Mo  Mo4  1  0.79643158  0.45780581  0.38862796  1
  Mo  Mo5  1  0.78550374  0.46278954  0.61844652  1
  Mo  Mo6  1  0.41127114  0.21989051  0.37468210  1
  Mo  Mo7  1  0.41307706  0.21712843  0.60765995  1
  Mo  Mo8  1  0.59439000  0.78338100  0.35611600  1
  Mo  Mo9  1  0.59361490  0.78259308  0.58823305  1
  Mo  Mo10  1  0.53839000  0.41017300  0.30039200  1
  Mo  Mo11  1  0.54250544  0.41789275  0.53197409  1
  Mo  Mo12  1  0.46546951  0.60106370  0.43249170  1
  Mo  Mo13  1  0.46862300  0.58400907  0.66154843  1
  S  S14  1  0.14445620  0.36726313  0.41722383  1
  S  S15  1  0.13916601  0.36168949  0.65059702  1
  S  S16  1  0.86398200  0.63520500  0.31550800  1
  S  S17  1  0.86992856  0.64644004  0.54679325  1
  S  S18  1  0.72141400  0.13929400  0.33709200  1
  S  S19  1  0.72433726  0.13477373  0.56618443  1
  S  S20  1  0.27929182  0.86248145  0.39362635  1
  S  S21  1  0.28368602  0.86155384  0.63009448  1
  S  S22  1  0.37280800  0.72589200  0.28016400  1
  S  S23  1  0.37132350  0.72927966  0.51222252  1
  S  S24  1  0.62619999  0.27571679  0.45249055  1
  S  S25  1  0.63166646  0.27779998  0.68722571  1
  S  S26  1  0.19164500  0.20201400  0.29537700  1
  S  S27  1  0.19409595  0.21020965  0.52768427  1
  S  S28  1  0.81558289  0.80498211  0.43569259  1
  S  S29  1  0.81174261  0.78019034  0.67146248  1
