# generated using pymatgen
data_Ag26Pt
_symmetry_space_group_name_H-M   'P 1'
_cell_length_a   8.60496519
_cell_length_b   8.60496881
_cell_length_c   23.47925300
_cell_angle_alpha   90.00483404
_cell_angle_beta   93.49762144
_cell_angle_gamma   119.99565775
_symmetry_Int_Tables_number   1
_chemical_formula_structural   Ag26Pt
_chemical_formula_sum   'Ag26 Pt1'
_cell_volume   1501.93330901
_cell_formula_units_Z   1
loop_
 _symmetry_equiv_pos_site_id
 _symmetry_equiv_pos_as_xyz
  1  'x, y, z'
loop_
 _atom_site_type_symbol
 _atom_site_label
 _atom_site_symmetry_multiplicity
 _atom_site_fract_x
 _atom_site_fract_y
 _atom_site_fract_z
 _atom_site_occupancy
  Ag  Ag0  1  0.20000000  0.26666700  0.40000000  1
  Ag  Ag1  1  0.20000000  0.60000000  0.40000000  1
  Ag  Ag2  1  0.20000000  0.93333300  0.40000000  1
  Ag  Ag3  1  0.53333300  0.26666700  0.40000000  1
  Ag  Ag4  1  0.53333300  0.60000000  0.40000000  1
  Ag  Ag5  1  0.53333300  0.93333300  0.40000000  1
  Ag  Ag6  1  0.86666700  0.26666700  0.40000000  1
  Ag  Ag7  1  0.86666700  0.60000000  0.40000000  1
  Ag  Ag8  1  0.86666700  0.93333300  0.40000000  1
  Ag  Ag9  1  0.33263172  0.16529866  0.49984403  1
  Ag  Ag10  1  0.33263176  0.50064775  0.49984366  1
  Ag  Ag11  1  0.33385403  0.83358957  0.50262703  1
  Ag  Ag12  1  0.66740891  0.16646892  0.50167548  1
  Ag  Ag13  1  0.66797038  0.50064501  0.49984181  1
  Ag  Ag14  1  0.66741152  0.83425986  0.50167304  1
  Ag  Ag15  1  0.99963270  0.16647633  0.50167306  1
  Ag  Ag16  1  0.00061435  0.50035468  0.50262537  1
  Ag  Ag17  1  0.00061576  0.83358896  0.50262138  1
  Ag  Ag18  1  0.13743691  0.07033123  0.60345964  1
  Ag  Ag19  1  0.13742638  0.40045672  0.60346592  1
  Ag  Ag20  1  0.13423418  0.73380606  0.60400226  1
  Ag  Ag21  1  0.46737751  0.07032464  0.60346903  1
  Ag  Ag22  1  0.46737197  0.73038869  0.60346283  1
  Ag  Ag23  1  0.80056937  0.06694485  0.60255875  1
  Ag  Ag24  1  0.79751931  0.40045664  0.60346969  1
  Ag  Ag25  1  0.79750767  0.73038316  0.60345690  1
  Pt  Pt26  1  0.46538631  0.39935932  0.59422759  1
