# generated using pymatgen
data_Ag
_symmetry_space_group_name_H-M   'P 1'
_cell_length_a   8.60517300
_cell_length_b   8.60496305
_cell_length_c   24.34014600
_cell_angle_alpha   89.99904118
_cell_angle_beta   89.99896131
_cell_angle_gamma   90.00613242
_symmetry_Int_Tables_number   1
_chemical_formula_structural   Ag
_chemical_formula_sum   Ag27
_cell_volume   1802.31954385
_cell_formula_units_Z   27
loop_
 _symmetry_equiv_pos_site_id
 _symmetry_equiv_pos_as_xyz
  1  'x, y, z'
loop_
 _atom_site_type_symbol
 _atom_site_label
 _atom_site_symmetry_multiplicity
 _atom_site_fract_x
 _atom_site_fract_y
 _atom_site_fract_z
 _atom_site_occupancy
  Ag  Ag0  1  0.33333300  0.00000000  0.45833300  1
  Ag  Ag1  1  0.33333300  0.33333300  0.45833300  1
  Ag  Ag2  1  0.33333300  0.66666700  0.45833300  1
  Ag  Ag3  1  0.66666700  0.00000000  0.45833300  1
  Ag  Ag4  1  0.66666700  0.33333300  0.45833300  1
  Ag  Ag5  1  0.66666700  0.66666700  0.45833300  1
  Ag  Ag6  1  0.00000000  0.00000000  0.45833300  1
  Ag  Ag7  1  0.00000000  0.33333300  0.45833300  1
  Ag  Ag8  1  0.00000000  0.66666700  0.45833300  1
  Ag  Ag9  1  0.33338149  0.99999526  0.62966794  1
  Ag  Ag10  1  0.33338107  0.33338176  0.62965989  1
  Ag  Ag11  1  0.33338095  0.66660825  0.62965972  1
  Ag  Ag12  1  0.66660737  0.99999499  0.62966822  1
  Ag  Ag13  1  0.66660770  0.33338150  0.62965976  1
  Ag  Ag14  1  0.66660775  0.66660840  0.62965948  1
  Ag  Ag15  1  0.99999427  0.99999510  0.62967556  1
  Ag  Ag16  1  0.99999447  0.33338208  0.62966821  1
  Ag  Ag17  1  0.99999418  0.66660800  0.62966841  1
  Ag  Ag18  1  0.16664336  0.16664365  0.54403658  1
  Ag  Ag19  1  0.16664334  0.49999792  0.54401732  1
  Ag  Ag20  1  0.16664317  0.83335210  0.54403684  1
  Ag  Ag21  1  0.49999782  0.16664369  0.54401723  1
  Ag  Ag22  1  0.49999773  0.49999776  0.54400017  1
  Ag  Ag23  1  0.49999798  0.83335207  0.54401742  1
  Ag  Ag24  1  0.83335199  0.16664355  0.54403681  1
  Ag  Ag25  1  0.83335198  0.49999809  0.54401748  1
  Ag  Ag26  1  0.83335215  0.83335234  0.54403687  1
