# generated using pymatgen
data_Pt
_symmetry_space_group_name_H-M   'P 1'
_cell_length_a   8.30585400
_cell_length_b   8.30548202
_cell_length_c   23.49208800
_cell_angle_alpha   89.99751652
_cell_angle_beta   89.99900665
_cell_angle_gamma   89.99635752
_symmetry_Int_Tables_number   1
_chemical_formula_structural   Pt
_chemical_formula_sum   Pt27
_cell_volume   1620.58103859
_cell_formula_units_Z   27
loop_
 _symmetry_equiv_pos_site_id
 _symmetry_equiv_pos_as_xyz
  1  'x, y, z'
loop_
 _atom_site_type_symbol
 _atom_site_label
 _atom_site_symmetry_multiplicity
 _atom_site_fract_x
 _atom_site_fract_y
 _atom_site_fract_z
 _atom_site_occupancy
  Pt  Pt0  1  0.00000000  0.00000000  0.45833200  1
  Pt  Pt1  1  0.00000000  0.33333400  0.45833200  1
  Pt  Pt2  1  0.00000000  0.66666700  0.45833200  1
  Pt  Pt3  1  0.33333400  0.00000000  0.45833200  1
  Pt  Pt4  1  0.33333400  0.33333400  0.45833200  1
  Pt  Pt5  1  0.33333400  0.66666700  0.45833200  1
  Pt  Pt6  1  0.66666700  0.00000000  0.45833200  1
  Pt  Pt7  1  0.66666700  0.33333400  0.45833200  1
  Pt  Pt8  1  0.66666700  0.66666700  0.45833200  1
  Pt  Pt9  1  0.99999598  0.99998631  0.62444100  1
  Pt  Pt10  1  0.99999396  0.33331675  0.62444211  1
  Pt  Pt11  1  0.99999456  0.66665047  0.62444083  1
  Pt  Pt12  1  0.33332728  0.99998464  0.62444135  1
  Pt  Pt13  1  0.33332793  0.33331706  0.62444022  1
  Pt  Pt14  1  0.33332902  0.66665186  0.62444170  1
  Pt  Pt15  1  0.66666153  0.99998523  0.62443974  1
  Pt  Pt16  1  0.66666293  0.33331851  0.62444176  1
  Pt  Pt17  1  0.66666126  0.66664983  0.62444244  1
  Pt  Pt18  1  0.16666303  0.16665841  0.54129500  1
  Pt  Pt19  1  0.16666301  0.49999172  0.54129537  1
  Pt  Pt20  1  0.16666361  0.83332486  0.54129539  1
  Pt  Pt21  1  0.49999685  0.16665854  0.54129507  1
  Pt  Pt22  1  0.49999747  0.49999225  0.54129550  1
  Pt  Pt23  1  0.49999679  0.83332423  0.54129554  1
  Pt  Pt24  1  0.83333046  0.16665913  0.54129507  1
  Pt  Pt25  1  0.83332980  0.49999162  0.54129557  1
  Pt  Pt26  1  0.83332995  0.83332425  0.54129549  1
