# generated using pymatgen
data_Ag
_symmetry_space_group_name_H-M   'P 1'
_cell_length_a   8.60496519
_cell_length_b   8.60496881
_cell_length_c   23.47925300
_cell_angle_alpha   90.00483404
_cell_angle_beta   93.49762144
_cell_angle_gamma   119.99565775
_symmetry_Int_Tables_number   1
_chemical_formula_structural   Ag
_chemical_formula_sum   Ag27
_cell_volume   1501.93330901
_cell_formula_units_Z   27
loop_
 _symmetry_equiv_pos_site_id
 _symmetry_equiv_pos_as_xyz
  1  'x, y, z'
loop_
 _atom_site_type_symbol
 _atom_site_label
 _atom_site_symmetry_multiplicity
 _atom_site_fract_x
 _atom_site_fract_y
 _atom_site_fract_z
 _atom_site_occupancy
  Ag  Ag0  1  0.20000000  0.26666700  0.40000000  1
  Ag  Ag1  1  0.20000000  0.60000000  0.40000000  1
  Ag  Ag2  1  0.20000000  0.93333300  0.40000000  1
  Ag  Ag3  1  0.53333300  0.26666700  0.40000000  1
  Ag  Ag4  1  0.53333300  0.60000000  0.40000000  1
  Ag  Ag5  1  0.53333300  0.93333300  0.40000000  1
  Ag  Ag6  1  0.86666700  0.26666700  0.40000000  1
  Ag  Ag7  1  0.86666700  0.60000000  0.40000000  1
  Ag  Ag8  1  0.86666700  0.93333300  0.40000000  1
  Ag  Ag9  1  0.33398281  0.16699507  0.50294810  1
  Ag  Ag10  1  0.33398636  0.50032589  0.50294763  1
  Ag  Ag11  1  0.33398563  0.83366744  0.50294911  1
  Ag  Ag12  1  0.66731281  0.16699460  0.50295005  1
  Ag  Ag13  1  0.66731259  0.50032675  0.50294938  1
  Ag  Ag14  1  0.66731760  0.83366080  0.50294802  1
  Ag  Ag15  1  0.00065317  0.16699086  0.50294823  1
  Ag  Ag16  1  0.00065023  0.50032979  0.50295227  1
  Ag  Ag17  1  0.00065235  0.83366776  0.50294795  1
  Ag  Ag18  1  0.13465917  0.06734067  0.60606399  1
  Ag  Ag19  1  0.13468008  0.40066975  0.60606837  1
  Ag  Ag20  1  0.13467853  0.73402780  0.60607057  1
  Ag  Ag21  1  0.46799544  0.06733896  0.60606469  1
  Ag  Ag22  1  0.46799304  0.40068042  0.60606181  1
  Ag  Ag23  1  0.46801778  0.73401492  0.60605625  1
  Ag  Ag24  1  0.80132286  0.06731587  0.60605845  1
  Ag  Ag25  1  0.80131633  0.40066950  0.60607094  1
  Ag  Ag26  1  0.80131867  0.73402305  0.60605802  1
