# generated using pymatgen
data_Fe(Mo3S4)2
_symmetry_space_group_name_H-M   'P 1'
_cell_length_a   6.45357383
_cell_length_b   6.40729292
_cell_length_c   27.84326400
_cell_angle_alpha   93.27559587
_cell_angle_beta   96.42128096
_cell_angle_gamma   96.53695481
_symmetry_Int_Tables_number   1
_chemical_formula_structural   Fe(Mo3S4)2
_chemical_formula_sum   'Fe2 Mo12 S16'
_cell_volume   1133.80606000
_cell_formula_units_Z   2
loop_
 _symmetry_equiv_pos_site_id
 _symmetry_equiv_pos_as_xyz
  1  'x, y, z'
loop_
 _atom_site_type_symbol
 _atom_site_label
 _atom_site_symmetry_multiplicity
 _atom_site_fract_x
 _atom_site_fract_y
 _atom_site_fract_z
 _atom_site_occupancy
  Fe  Fe0  1  0.94052888  0.15218594  0.46084114  1
  Fe  Fe1  1  0.88331536  0.11145367  0.65592555  1
  Mo  Mo2  1  0.21324400  0.54241800  0.34209900  1
  Mo  Mo3  1  0.21877508  0.54624333  0.57574501  1
  Mo  Mo4  1  0.79272462  0.45868814  0.38824498  1
  Mo  Mo5  1  0.78343760  0.46056274  0.61852197  1
  Mo  Mo6  1  0.41029781  0.21896368  0.37473461  1
  Mo  Mo7  1  0.40891286  0.22054279  0.60756922  1
  Mo  Mo8  1  0.59439000  0.78338100  0.35611600  1
  Mo  Mo9  1  0.59307046  0.78130544  0.58742585  1
  Mo  Mo10  1  0.53839000  0.41017300  0.30039200  1
  Mo  Mo11  1  0.53944059  0.41597942  0.53193858  1
  Mo  Mo12  1  0.46260721  0.60048044  0.43247969  1
  Mo  Mo13  1  0.46858654  0.58724287  0.66089624  1
  S  S14  1  0.14219668  0.36531352  0.41722200  1
  S  S15  1  0.14094083  0.37098904  0.65156417  1
  S  S16  1  0.86398200  0.63520500  0.31550800  1
  S  S17  1  0.86747925  0.64264857  0.54652106  1
  S  S18  1  0.72141400  0.13929400  0.33709200  1
  S  S19  1  0.71962929  0.13581128  0.56647840  1
  S  S20  1  0.27836111  0.86180681  0.39364401  1
  S  S21  1  0.28285815  0.86343544  0.62938799  1
  S  S22  1  0.37280800  0.72589200  0.28016400  1
  S  S23  1  0.36983721  0.72930462  0.51202944  1
  S  S24  1  0.62307947  0.27526990  0.45224539  1
  S  S25  1  0.62655303  0.27939862  0.68813720  1
  S  S26  1  0.19164500  0.20201400  0.29537700  1
  S  S27  1  0.19154600  0.20962810  0.52782977  1
  S  S28  1  0.81219467  0.80500885  0.43571532  1
  S  S29  1  0.81502857  0.77854116  0.67236585  1
