# generated using pymatgen
data_Te4Mo3
_symmetry_space_group_name_H-M   'P 1'
_cell_length_a   7.04082001
_cell_length_b   7.04195269
_cell_length_c   29.08263700
_cell_angle_alpha   92.42233475
_cell_angle_beta   92.43396473
_cell_angle_gamma   92.45457226
_symmetry_Int_Tables_number   1
_chemical_formula_structural   Te4Mo3
_chemical_formula_sum   'Te16 Mo12'
_cell_volume   1437.92269216
_cell_formula_units_Z   4
loop_
 _symmetry_equiv_pos_site_id
 _symmetry_equiv_pos_as_xyz
  1  'x, y, z'
loop_
 _atom_site_type_symbol
 _atom_site_label
 _atom_site_symmetry_multiplicity
 _atom_site_fract_x
 _atom_site_fract_y
 _atom_site_fract_z
 _atom_site_occupancy
  Mo  Mo0  1  0.24223528  0.54730570  0.35188522  1
  Mo  Mo1  1  0.24408017  0.54141396  0.59555714  1
  Mo  Mo2  1  0.75738047  0.45845144  0.39022285  1
  Mo  Mo3  1  0.76162851  0.45087887  0.63217068  1
  Mo  Mo4  1  0.41848816  0.24461667  0.38153782  1
  Mo  Mo5  1  0.42869675  0.23440419  0.62371359  1
  Mo  Mo6  1  0.57421235  0.76035676  0.36095269  1
  Mo  Mo7  1  0.58042659  0.75359857  0.60320736  1
  Mo  Mo8  1  0.54335900  0.41937700  0.30833700  1
  Mo  Mo9  1  0.54453767  0.41891614  0.55010906  1
  Mo  Mo10  1  0.45461893  0.58118301  0.43479505  1
  Mo  Mo11  1  0.46145822  0.57120892  0.67541250  1
  Te  Te12  1  0.11511087  0.37543919  0.43164817  1
  Te  Te13  1  0.11847202  0.36748969  0.67508378  1
  Te  Te14  1  0.88219500  0.62512800  0.31051700  1
  Te  Te15  1  0.88622070  0.62479147  0.55358623  1
  Te  Te16  1  0.74986000  0.11788600  0.34077800  1
  Te  Te17  1  0.74900279  0.11262678  0.58076103  1
  Te  Te18  1  0.25031570  0.88438268  0.40343521  1
  Te  Te19  1  0.25821457  0.87698753  0.65014358  1
  Te  Te20  1  0.37496100  0.74994600  0.27852400  1
  Te  Te21  1  0.37059778  0.74848316  0.52203507  1
  Te  Te22  1  0.62612783  0.25078731  0.46322037  1
  Te  Te23  1  0.62636606  0.25563147  0.70723227  1
  Te  Te24  1  0.20510400  0.20534500  0.29972100  1
  Te  Te25  1  0.20725911  0.20401782  0.54337351  1
  Te  Te26  1  0.79166467  0.79544844  0.44247902  1
  Te  Te27  1  0.78815608  0.79130397  0.68542998  1
