# generated using pymatgen
data_Ag
_symmetry_space_group_name_H-M   'P 1'
_cell_length_a   8.60496519
_cell_length_b   8.60496881
_cell_length_c   23.47925300
_cell_angle_alpha   90.00483404
_cell_angle_beta   93.49762144
_cell_angle_gamma   119.99565775
_symmetry_Int_Tables_number   1
_chemical_formula_structural   Ag
_chemical_formula_sum   Ag27
_cell_volume   1501.93330901
_cell_formula_units_Z   27
loop_
 _symmetry_equiv_pos_site_id
 _symmetry_equiv_pos_as_xyz
  1  'x, y, z'
loop_
 _atom_site_type_symbol
 _atom_site_label
 _atom_site_symmetry_multiplicity
 _atom_site_fract_x
 _atom_site_fract_y
 _atom_site_fract_z
 _atom_site_occupancy
  Ag  Ag0  1  0.20000000  0.26666700  0.40000000  1
  Ag  Ag1  1  0.20000000  0.60000000  0.40000000  1
  Ag  Ag2  1  0.20000000  0.93333300  0.40000000  1
  Ag  Ag3  1  0.53333300  0.26666700  0.40000000  1
  Ag  Ag4  1  0.53333300  0.60000000  0.40000000  1
  Ag  Ag5  1  0.53333300  0.93333300  0.40000000  1
  Ag  Ag6  1  0.86666700  0.26666700  0.40000000  1
  Ag  Ag7  1  0.86666700  0.60000000  0.40000000  1
  Ag  Ag8  1  0.86666700  0.93333300  0.40000000  1
  Ag  Ag9  1  0.33359865  0.16680181  0.50123483  1
  Ag  Ag10  1  0.33360621  0.50013663  0.50122993  1
  Ag  Ag11  1  0.33360604  0.83347221  0.50123025  1
  Ag  Ag12  1  0.66692871  0.16679451  0.50122761  1
  Ag  Ag13  1  0.66692834  0.50013910  0.50122854  1
  Ag  Ag14  1  0.66693484  0.83346778  0.50122806  1
  Ag  Ag15  1  0.00027479  0.16679862  0.50123047  1
  Ag  Ag16  1  0.00027187  0.50013815  0.50122638  1
  Ag  Ag17  1  0.00027298  0.83347795  0.50123156  1
  Ag  Ag18  1  0.13385021  0.06693275  0.60235119  1
  Ag  Ag19  1  0.13384971  0.40026062  0.60234013  1
  Ag  Ag20  1  0.13384970  0.73360577  0.60234148  1
  Ag  Ag21  1  0.46716531  0.06692774  0.60233999  1
  Ag  Ag22  1  0.46716639  0.40025690  0.60234228  1
  Ag  Ag23  1  0.46717319  0.73359289  0.60233653  1
  Ag  Ag24  1  0.80051442  0.06692639  0.60233394  1
  Ag  Ag25  1  0.80050605  0.40026339  0.60232859  1
  Ag  Ag26  1  0.80051373  0.73360123  0.60233692  1
