# generated using pymatgen
data_Ag
_symmetry_space_group_name_H-M   'P 1'
_cell_length_a   8.60496519
_cell_length_b   8.60496881
_cell_length_c   23.47925300
_cell_angle_alpha   90.00483404
_cell_angle_beta   93.49762144
_cell_angle_gamma   119.99565775
_symmetry_Int_Tables_number   1
_chemical_formula_structural   Ag
_chemical_formula_sum   Ag27
_cell_volume   1501.93330901
_cell_formula_units_Z   27
loop_
 _symmetry_equiv_pos_site_id
 _symmetry_equiv_pos_as_xyz
  1  'x, y, z'
loop_
 _atom_site_type_symbol
 _atom_site_label
 _atom_site_symmetry_multiplicity
 _atom_site_fract_x
 _atom_site_fract_y
 _atom_site_fract_z
 _atom_site_occupancy
  Ag  Ag0  1  0.20000000  0.26666700  0.40000000  1
  Ag  Ag1  1  0.20000000  0.60000000  0.40000000  1
  Ag  Ag2  1  0.20000000  0.93333300  0.40000000  1
  Ag  Ag3  1  0.53333300  0.26666700  0.40000000  1
  Ag  Ag4  1  0.53333300  0.60000000  0.40000000  1
  Ag  Ag5  1  0.53333300  0.93333300  0.40000000  1
  Ag  Ag6  1  0.86666700  0.26666700  0.40000000  1
  Ag  Ag7  1  0.86666700  0.60000000  0.40000000  1
  Ag  Ag8  1  0.86666700  0.93333300  0.40000000  1
  Ag  Ag9  1  0.33400274  0.16700370  0.50304726  1
  Ag  Ag10  1  0.33400735  0.50033654  0.50305196  1
  Ag  Ag11  1  0.33400713  0.83367439  0.50305181  1
  Ag  Ag12  1  0.66733621  0.16700077  0.50304656  1
  Ag  Ag13  1  0.66733434  0.50033898  0.50304724  1
  Ag  Ag14  1  0.66734156  0.83367227  0.50304929  1
  Ag  Ag15  1  0.00066832  0.16699834  0.50305171  1
  Ag  Ag16  1  0.00066830  0.50033627  0.50305287  1
  Ag  Ag17  1  0.00066800  0.83367402  0.50305119  1
  Ag  Ag18  1  0.13466058  0.06733692  0.60603580  1
  Ag  Ag19  1  0.13466167  0.40066759  0.60603117  1
  Ag  Ag20  1  0.13466237  0.73400934  0.60603050  1
  Ag  Ag21  1  0.46798361  0.06733046  0.60603382  1
  Ag  Ag22  1  0.46798329  0.40066734  0.60603458  1
  Ag  Ag23  1  0.46798756  0.73399923  0.60603601  1
  Ag  Ag24  1  0.80132216  0.06733294  0.60603334  1
  Ag  Ag25  1  0.80131854  0.40066615  0.60602966  1
  Ag  Ag26  1  0.80132157  0.73400204  0.60603414  1
