# generated using pymatgen
data_Fe(Mo3S4)2
_symmetry_space_group_name_H-M   'P 1'
_cell_length_a   6.45357383
_cell_length_b   6.40729292
_cell_length_c   27.84326400
_cell_angle_alpha   93.27559587
_cell_angle_beta   96.42128096
_cell_angle_gamma   96.53695481
_symmetry_Int_Tables_number   1
_chemical_formula_structural   Fe(Mo3S4)2
_chemical_formula_sum   'Fe2 Mo12 S16'
_cell_volume   1133.80606000
_cell_formula_units_Z   2
loop_
 _symmetry_equiv_pos_site_id
 _symmetry_equiv_pos_as_xyz
  1  'x, y, z'
loop_
 _atom_site_type_symbol
 _atom_site_label
 _atom_site_symmetry_multiplicity
 _atom_site_fract_x
 _atom_site_fract_y
 _atom_site_fract_z
 _atom_site_occupancy
  Fe  Fe0  1  0.94153389  0.15310777  0.46075938  1
  Fe  Fe1  1  0.85909290  0.10671714  0.64750272  1
  Mo  Mo2  1  0.21324400  0.54241800  0.34209900  1
  Mo  Mo3  1  0.21824950  0.54733758  0.57622640  1
  Mo  Mo4  1  0.79484903  0.45822364  0.38858646  1
  Mo  Mo5  1  0.78227521  0.46527752  0.61881038  1
  Mo  Mo6  1  0.41096240  0.21991179  0.37480139  1
  Mo  Mo7  1  0.40996210  0.21960437  0.60795674  1
  Mo  Mo8  1  0.59439000  0.78338100  0.35611600  1
  Mo  Mo9  1  0.59094252  0.78497339  0.58827479  1
  Mo  Mo10  1  0.53839000  0.41017300  0.30039200  1
  Mo  Mo11  1  0.53956410  0.41962068  0.53228689  1
  Mo  Mo12  1  0.46383335  0.60147940  0.43260366  1
  Mo  Mo13  1  0.46537817  0.58644998  0.66139433  1
  S  S14  1  0.14331927  0.36655401  0.41730713  1
  S  S15  1  0.13619996  0.36387056  0.65109222  1
  S  S16  1  0.86398200  0.63520500  0.31550800  1
  S  S17  1  0.86704329  0.64798524  0.54704529  1
  S  S18  1  0.72141400  0.13929400  0.33709200  1
  S  S19  1  0.72125696  0.13708279  0.56652229  1
  S  S20  1  0.27879624  0.86248801  0.39362725  1
  S  S21  1  0.28024088  0.86378358  0.63014835  1
  S  S22  1  0.37280800  0.72589200  0.28016400  1
  S  S23  1  0.36871568  0.73109608  0.51227607  1
  S  S24  1  0.62431598  0.27676728  0.45270764  1
  S  S25  1  0.62830462  0.28052899  0.68778080  1
  S  S26  1  0.19164500  0.20201400  0.29537700  1
  S  S27  1  0.19125920  0.21176656  0.52803600  1
  S  S28  1  0.81363240  0.80525697  0.43584953  1
  S  S29  1  0.80887574  0.78310519  0.67196326  1
