# generated using pymatgen
data_Pd
_symmetry_space_group_name_H-M   'P 1'
_cell_length_a   8.25688963
_cell_length_b   8.25682385
_cell_length_c   22.52889700
_cell_angle_alpha   86.49742100
_cell_angle_beta   86.49797035
_cell_angle_gamma   59.99972739
_symmetry_Int_Tables_number   1
_chemical_formula_structural   Pd
_chemical_formula_sum   Pd27
_cell_volume   1326.83127031
_cell_formula_units_Z   27
loop_
 _symmetry_equiv_pos_site_id
 _symmetry_equiv_pos_as_xyz
  1  'x, y, z'
loop_
 _atom_site_type_symbol
 _atom_site_label
 _atom_site_symmetry_multiplicity
 _atom_site_fract_x
 _atom_site_fract_y
 _atom_site_fract_z
 _atom_site_occupancy
  Pd  Pd0  1  0.06666700  0.06666600  0.40000000  1
  Pd  Pd1  1  0.06666700  0.39999900  0.40000000  1
  Pd  Pd2  1  0.06666700  0.73333300  0.40000000  1
  Pd  Pd3  1  0.40000000  0.06666600  0.40000000  1
  Pd  Pd4  1  0.40000000  0.39999900  0.40000000  1
  Pd  Pd5  1  0.40000000  0.73333300  0.40000000  1
  Pd  Pd6  1  0.73333300  0.06666600  0.40000000  1
  Pd  Pd7  1  0.73333300  0.39999900  0.40000000  1
  Pd  Pd8  1  0.73333300  0.73333300  0.40000000  1
  Pd  Pd9  1  0.16645465  0.16645128  0.50167601  1
  Pd  Pd10  1  0.16645515  0.49978401  0.50167596  1
  Pd  Pd11  1  0.16645482  0.83311804  0.50167588  1
  Pd  Pd12  1  0.49978858  0.16645130  0.50167584  1
  Pd  Pd13  1  0.49978885  0.49978376  0.50167568  1
  Pd  Pd14  1  0.49978849  0.83311768  0.50167568  1
  Pd  Pd15  1  0.83312232  0.16645081  0.50167596  1
  Pd  Pd16  1  0.83312267  0.49978334  0.50167599  1
  Pd  Pd17  1  0.83312248  0.83311756  0.50167592  1
  Pd  Pd18  1  0.26622323  0.26621144  0.60352182  1
  Pd  Pd19  1  0.26622240  0.59954676  0.60352178  1
  Pd  Pd20  1  0.26622278  0.93287860  0.60352209  1
  Pd  Pd21  1  0.59955605  0.26621183  0.60352192  1
  Pd  Pd22  1  0.59955454  0.59954704  0.60352202  1
  Pd  Pd23  1  0.59955555  0.93287901  0.60352212  1
  Pd  Pd24  1  0.93288832  0.26621185  0.60352192  1
  Pd  Pd25  1  0.93288751  0.59954753  0.60352203  1
  Pd  Pd26  1  0.93288812  0.93287959  0.60352213  1
