# generated using pymatgen
data_Au
_symmetry_space_group_name_H-M   'P 1'
_cell_length_a   8.57606266
_cell_length_b   8.57606266
_cell_length_c   23.65109797
_cell_angle_alpha   88.12641697
_cell_angle_beta   88.12641697
_cell_angle_gamma   63.40130658
_symmetry_Int_Tables_number   1
_chemical_formula_structural   Au
_chemical_formula_sum   Au27
_cell_volume   1554.26011481
_cell_formula_units_Z   27
loop_
 _symmetry_equiv_pos_site_id
 _symmetry_equiv_pos_as_xyz
  1  'x, y, z'
loop_
 _atom_site_type_symbol
 _atom_site_label
 _atom_site_symmetry_multiplicity
 _atom_site_fract_x
 _atom_site_fract_y
 _atom_site_fract_z
 _atom_site_occupancy
  Au  Au0  1  0.20077696  0.20077675  0.60255763  1
  Au  Au1  1  0.20076796  0.53412438  0.60255188  1
  Au  Au2  1  0.20077084  0.86741425  0.60255989  1
  Au  Au3  1  0.53412449  0.20076781  0.60255189  1
  Au  Au4  1  0.53411071  0.53411072  0.60256763  1
  Au  Au5  1  0.53411320  0.86744521  0.60256240  1
  Au  Au6  1  0.86741429  0.20077076  0.60255984  1
  Au  Au7  1  0.86744520  0.53411323  0.60256235  1
  Au  Au8  1  0.86744672  0.86744674  0.60256163  1
  Au  Au9  1  0.00012558  0.33346624  0.50124641  1
  Au  Au10  1  0.00014623  0.66679065  0.50124547  1
  Au  Au11  1  0.00011952  0.00011948  0.50124768  1
  Au  Au12  1  0.33346967  0.33346971  0.50124228  1
  Au  Au13  1  0.33350620  0.66678567  0.50124945  1
  Au  Au14  1  0.33346613  0.00012562  0.50124640  1
  Au  Au15  1  0.66678547  0.33350635  0.50124948  1
  Au  Au16  1  0.66681775  0.66681801  0.50124735  1
  Au  Au17  1  0.66679052  0.00014632  0.50124553  1
  Au  Au18  1  0.13333300  0.13333300  0.40000000  1
  Au  Au19  1  0.13333300  0.46666600  0.40000000  1
  Au  Au20  1  0.13333300  0.80000000  0.40000000  1
  Au  Au21  1  0.46666600  0.13333300  0.40000000  1
  Au  Au22  1  0.46666700  0.46666700  0.40000000  1
  Au  Au23  1  0.46666700  0.80000000  0.40000000  1
  Au  Au24  1  0.80000000  0.13333300  0.40000000  1
  Au  Au25  1  0.80000000  0.46666700  0.40000000  1
  Au  Au26  1  0.80000000  0.80000000  0.40000000  1
