# generated using pymatgen
data_Mo3Se4
_symmetry_space_group_name_H-M   'P 1'
_cell_length_a   6.61417350
_cell_length_b   6.61583473
_cell_length_c   28.23028900
_cell_angle_alpha   91.53841057
_cell_angle_beta   91.51120564
_cell_angle_gamma   91.52367391
_symmetry_Int_Tables_number   1
_chemical_formula_structural   Mo3Se4
_chemical_formula_sum   'Mo12 Se16'
_cell_volume   1233.97341125
_cell_formula_units_Z   4
loop_
 _symmetry_equiv_pos_site_id
 _symmetry_equiv_pos_as_xyz
  1  'x, y, z'
loop_
 _atom_site_type_symbol
 _atom_site_label
 _atom_site_symmetry_multiplicity
 _atom_site_fract_x
 _atom_site_fract_y
 _atom_site_fract_z
 _atom_site_occupancy
  Mo  Mo0  1  0.22064400  0.54530100  0.34680900  1
  Mo  Mo1  1  0.22580267  0.54732533  0.58421895  1
  Mo  Mo2  1  0.76970226  0.45292000  0.38687814  1
  Mo  Mo3  1  0.76712681  0.44911574  0.62306763  1
  Mo  Mo4  1  0.41236032  0.22600018  0.37799443  1
  Mo  Mo5  1  0.41857199  0.22414071  0.61453470  1
  Mo  Mo6  1  0.57866742  0.77240144  0.35708243  1
  Mo  Mo7  1  0.58082701  0.77521657  0.59276552  1
  Mo  Mo8  1  0.54531000  0.41281400  0.30171000  1
  Mo  Mo9  1  0.54615894  0.41770611  0.53596371  1
  Mo  Mo10  1  0.44868925  0.58391524  0.43429321  1
  Mo  Mo11  1  0.44726218  0.57669125  0.66528568  1
  Se  Se12  1  0.12096960  0.37864219  0.42622910  1
  Se  Se13  1  0.12279521  0.36676002  0.66258692  1
  Se  Se14  1  0.87245300  0.62115500  0.30846200  1
  Se  Se15  1  0.87432121  0.62276599  0.54501980  1
  Se  Se16  1  0.75031900  0.12757300  0.33876000  1
  Se  Se17  1  0.74837351  0.12704177  0.57213061  1
  Se  Se18  1  0.24520345  0.87129279  0.39752731  1
  Se  Se19  1  0.24943703  0.87363755  0.63624414  1
  Se  Se20  1  0.37880700  0.75023000  0.27992500  1
  Se  Se21  1  0.37515420  0.75101282  0.51612682  1
  Se  Se22  1  0.61886868  0.24884450  0.45474929  1
  Se  Se23  1  0.61938267  0.26372599  0.69478250  1
  Se  Se24  1  0.21114700  0.21116100  0.29951300  1
  Se  Se25  1  0.22113683  0.20800740  0.53638024  1
  Se  Se26  1  0.77746074  0.78750483  0.43569882  1
  Se  Se27  1  0.77233225  0.78431521  0.67269181  1
