# generated using pymatgen
data_Au
_symmetry_space_group_name_H-M   'P 1'
_cell_length_a   8.57606266
_cell_length_b   8.57606266
_cell_length_c   23.65109797
_cell_angle_alpha   88.12641697
_cell_angle_beta   88.12641697
_cell_angle_gamma   63.40130658
_symmetry_Int_Tables_number   1
_chemical_formula_structural   Au
_chemical_formula_sum   Au27
_cell_volume   1554.26011481
_cell_formula_units_Z   27
loop_
 _symmetry_equiv_pos_site_id
 _symmetry_equiv_pos_as_xyz
  1  'x, y, z'
loop_
 _atom_site_type_symbol
 _atom_site_label
 _atom_site_symmetry_multiplicity
 _atom_site_fract_x
 _atom_site_fract_y
 _atom_site_fract_z
 _atom_site_occupancy
  Au  Au0  1  0.20375610  0.20375600  0.60891027  1
  Au  Au1  1  0.20379016  0.53706371  0.60889675  1
  Au  Au2  1  0.20377863  0.87041700  0.60888525  1
  Au  Au3  1  0.53706370  0.20379023  0.60889667  1
  Au  Au4  1  0.53711372  0.53711379  0.60889986  1
  Au  Au5  1  0.53711382  0.87044100  0.60890004  1
  Au  Au6  1  0.87041708  0.20377859  0.60888507  1
  Au  Au7  1  0.87044094  0.53711385  0.60890006  1
  Au  Au8  1  0.87045751  0.87045743  0.60886965  1
  Au  Au9  1  0.00072493  0.33401017  0.50454665  1
  Au  Au10  1  0.00074907  0.66735310  0.50453454  1
  Au  Au11  1  0.00069731  0.00069717  0.50453228  1
  Au  Au12  1  0.33403607  0.33403620  0.50454365  1
  Au  Au13  1  0.33411549  0.66735048  0.50453205  1
  Au  Au14  1  0.33401015  0.00072500  0.50454666  1
  Au  Au15  1  0.66735039  0.33411556  0.50453202  1
  Au  Au16  1  0.66739293  0.66739289  0.50454318  1
  Au  Au17  1  0.66735319  0.00074901  0.50453451  1
  Au  Au18  1  0.13333300  0.13333300  0.40000000  1
  Au  Au19  1  0.13333300  0.46666600  0.40000000  1
  Au  Au20  1  0.13333300  0.80000000  0.40000000  1
  Au  Au21  1  0.46666600  0.13333300  0.40000000  1
  Au  Au22  1  0.46666700  0.46666700  0.40000000  1
  Au  Au23  1  0.46666700  0.80000000  0.40000000  1
  Au  Au24  1  0.80000000  0.13333300  0.40000000  1
  Au  Au25  1  0.80000000  0.46666700  0.40000000  1
  Au  Au26  1  0.80000000  0.80000000  0.40000000  1
