# generated using pymatgen
data_Mo2C
_symmetry_space_group_name_H-M   'P 1'
_cell_length_a   4.68437300
_cell_length_b   5.20389200
_cell_length_c   30.20378500
_cell_angle_alpha   90.00027525
_cell_angle_beta   89.99949852
_cell_angle_gamma   90.00012111
_symmetry_Int_Tables_number   1
_chemical_formula_structural   Mo2C
_chemical_formula_sum   'Mo12 C6'
_cell_volume   736.27679646
_cell_formula_units_Z   6
loop_
 _symmetry_equiv_pos_site_id
 _symmetry_equiv_pos_as_xyz
  1  'x, y, z'
loop_
 _atom_site_type_symbol
 _atom_site_label
 _atom_site_symmetry_multiplicity
 _atom_site_fract_x
 _atom_site_fract_y
 _atom_site_fract_z
 _atom_site_occupancy
  Mo  Mo0  1  0.23934222  0.08514821  0.47349659  1
  Mo  Mo1  1  0.74571300  0.92137600  0.32559700  1
  Mo  Mo2  1  0.25429200  0.57864400  0.32559900  1
  Mo  Mo3  1  0.76054630  0.41473990  0.47349761  1
  Mo  Mo4  1  0.24550345  0.58211233  0.42472622  1
  Mo  Mo5  1  0.74571400  0.42136300  0.37440200  1
  Mo  Mo6  1  0.25428000  0.07863200  0.37440000  1
  Mo  Mo7  1  0.75439646  0.91777489  0.42472594  1
  Mo  Mo8  1  0.73380710  0.92188586  0.52623855  1
  Mo  Mo9  1  0.26607919  0.57801170  0.52623963  1
  Mo  Mo10  1  0.73577293  0.45106533  0.56712086  1
  Mo  Mo11  1  0.26411751  0.04887169  0.56711709  1
  C  C12  1  0.49994430  0.74993740  0.47436075  1
  C  C13  1  0.00000200  0.25000000  0.32540000  1
  C  C14  1  0.49997229  0.24995416  0.42498139  1
  C  C15  1  0.00000900  0.75000600  0.37460000  1
  C  C16  1  0.99992851  0.24995004  0.52664054  1
  C  C17  1  0.99995671  0.74996604  0.57678772  1
