# generated using pymatgen
data_Mo3Se4
_symmetry_space_group_name_H-M   'P 1'
_cell_length_a   6.61417350
_cell_length_b   6.61583473
_cell_length_c   28.23028900
_cell_angle_alpha   91.53841057
_cell_angle_beta   91.51120564
_cell_angle_gamma   91.52367391
_symmetry_Int_Tables_number   1
_chemical_formula_structural   Mo3Se4
_chemical_formula_sum   'Mo12 Se16'
_cell_volume   1233.97341125
_cell_formula_units_Z   4
loop_
 _symmetry_equiv_pos_site_id
 _symmetry_equiv_pos_as_xyz
  1  'x, y, z'
loop_
 _atom_site_type_symbol
 _atom_site_label
 _atom_site_symmetry_multiplicity
 _atom_site_fract_x
 _atom_site_fract_y
 _atom_site_fract_z
 _atom_site_occupancy
  Mo  Mo0  1  0.22064400  0.54530100  0.34680900  1
  Mo  Mo1  1  0.22658135  0.54748337  0.58361896  1
  Mo  Mo2  1  0.77315581  0.45378012  0.38684375  1
  Mo  Mo3  1  0.76952297  0.44949106  0.62236899  1
  Mo  Mo4  1  0.41358589  0.22597760  0.37789881  1
  Mo  Mo5  1  0.42005151  0.22166566  0.61342196  1
  Mo  Mo6  1  0.57906644  0.77453511  0.35694627  1
  Mo  Mo7  1  0.58181419  0.77566828  0.59201152  1
  Mo  Mo8  1  0.54531000  0.41281400  0.30171000  1
  Mo  Mo9  1  0.54671984  0.41792264  0.53558252  1
  Mo  Mo10  1  0.45114671  0.58524990  0.43379999  1
  Mo  Mo11  1  0.45245918  0.57668289  0.66553527  1
  Se  Se12  1  0.12303480  0.37949956  0.42615769  1
  Se  Se13  1  0.12323436  0.37089461  0.66154648  1
  Se  Se14  1  0.87245300  0.62115500  0.30846200  1
  Se  Se15  1  0.87518700  0.62399244  0.54440779  1
  Se  Se16  1  0.75031900  0.12757300  0.33876000  1
  Se  Se17  1  0.74901029  0.12666809  0.57143587  1
  Se  Se18  1  0.24599041  0.87244224  0.39709923  1
  Se  Se19  1  0.25221259  0.87315136  0.63611321  1
  Se  Se20  1  0.37880700  0.75023000  0.27992500  1
  Se  Se21  1  0.37531228  0.75210546  0.51554810  1
  Se  Se22  1  0.62121602  0.24926278  0.45444208  1
  Se  Se23  1  0.61754132  0.25959897  0.69316693  1
  Se  Se24  1  0.21114700  0.21116100  0.29951300  1
  Se  Se25  1  0.21948329  0.20932149  0.53566329  1
  Se  Se26  1  0.78147029  0.78782500  0.43533688  1
  Se  Se27  1  0.77388782  0.78672421  0.67147301  1
