# generated using pymatgen
data_Ag
_symmetry_space_group_name_H-M   'P 1'
_cell_length_a   8.60517300
_cell_length_b   8.60496305
_cell_length_c   24.34014600
_cell_angle_alpha   89.99904118
_cell_angle_beta   89.99896131
_cell_angle_gamma   90.00613242
_symmetry_Int_Tables_number   1
_chemical_formula_structural   Ag
_chemical_formula_sum   Ag27
_cell_volume   1802.31954385
_cell_formula_units_Z   27
loop_
 _symmetry_equiv_pos_site_id
 _symmetry_equiv_pos_as_xyz
  1  'x, y, z'
loop_
 _atom_site_type_symbol
 _atom_site_label
 _atom_site_symmetry_multiplicity
 _atom_site_fract_x
 _atom_site_fract_y
 _atom_site_fract_z
 _atom_site_occupancy
  Ag  Ag0  1  0.33333300  0.00000000  0.45833300  1
  Ag  Ag1  1  0.33333300  0.33333300  0.45833300  1
  Ag  Ag2  1  0.33333300  0.66666700  0.45833300  1
  Ag  Ag3  1  0.66666700  0.00000000  0.45833300  1
  Ag  Ag4  1  0.66666700  0.33333300  0.45833300  1
  Ag  Ag5  1  0.66666700  0.66666700  0.45833300  1
  Ag  Ag6  1  0.00000000  0.00000000  0.45833300  1
  Ag  Ag7  1  0.00000000  0.33333300  0.45833300  1
  Ag  Ag8  1  0.00000000  0.66666700  0.45833300  1
  Ag  Ag9  1  0.33336412  0.99999583  0.62665381  1
  Ag  Ag10  1  0.33335706  0.33335812  0.62664126  1
  Ag  Ag11  1  0.33335647  0.66663849  0.62664344  1
  Ag  Ag12  1  0.66662602  0.99999400  0.62665048  1
  Ag  Ag13  1  0.66663204  0.33335904  0.62663756  1
  Ag  Ag14  1  0.66663440  0.66663939  0.62664038  1
  Ag  Ag15  1  0.00000052  0.99999332  0.62665685  1
  Ag  Ag16  1  0.00000164  0.33336670  0.62664889  1
  Ag  Ag17  1  0.99999978  0.66663252  0.62665209  1
  Ag  Ag18  1  0.16664915  0.16664616  0.54240475  1
  Ag  Ag19  1  0.16664547  0.50000094  0.54239997  1
  Ag  Ag20  1  0.16664875  0.83335090  0.54240447  1
  Ag  Ag21  1  0.49999691  0.16664271  0.54240018  1
  Ag  Ag22  1  0.49999702  0.50000076  0.54239229  1
  Ag  Ag23  1  0.49999718  0.83335449  0.54239976  1
  Ag  Ag24  1  0.83335163  0.16664599  0.54240524  1
  Ag  Ag25  1  0.83335523  0.50000118  0.54240051  1
  Ag  Ag26  1  0.83335181  0.83335083  0.54240520  1
