# generated using pymatgen
data_Ag
_symmetry_space_group_name_H-M   'P 1'
_cell_length_a   8.60517300
_cell_length_b   8.60496305
_cell_length_c   24.34014600
_cell_angle_alpha   89.99904118
_cell_angle_beta   89.99896131
_cell_angle_gamma   90.00613242
_symmetry_Int_Tables_number   1
_chemical_formula_structural   Ag
_chemical_formula_sum   Ag27
_cell_volume   1802.31954385
_cell_formula_units_Z   27
loop_
 _symmetry_equiv_pos_site_id
 _symmetry_equiv_pos_as_xyz
  1  'x, y, z'
loop_
 _atom_site_type_symbol
 _atom_site_label
 _atom_site_symmetry_multiplicity
 _atom_site_fract_x
 _atom_site_fract_y
 _atom_site_fract_z
 _atom_site_occupancy
  Ag  Ag0  1  0.33333300  0.00000000  0.45833300  1
  Ag  Ag1  1  0.33333300  0.33333300  0.45833300  1
  Ag  Ag2  1  0.33333300  0.66666700  0.45833300  1
  Ag  Ag3  1  0.66666700  0.00000000  0.45833300  1
  Ag  Ag4  1  0.66666700  0.33333300  0.45833300  1
  Ag  Ag5  1  0.66666700  0.66666700  0.45833300  1
  Ag  Ag6  1  0.00000000  0.00000000  0.45833300  1
  Ag  Ag7  1  0.00000000  0.33333300  0.45833300  1
  Ag  Ag8  1  0.00000000  0.66666700  0.45833300  1
  Ag  Ag9  1  0.33334945  0.99999614  0.62920783  1
  Ag  Ag10  1  0.33334382  0.33334448  0.62917046  1
  Ag  Ag11  1  0.33334464  0.66664438  0.62916971  1
  Ag  Ag12  1  0.66663897  0.99999438  0.62920761  1
  Ag  Ag13  1  0.66664379  0.33334537  0.62916962  1
  Ag  Ag14  1  0.66664466  0.66664515  0.62916990  1
  Ag  Ag15  1  0.99999470  0.99999525  0.62924248  1
  Ag  Ag16  1  0.99999556  0.33335013  0.62920781  1
  Ag  Ag17  1  0.99999377  0.66663959  0.62920772  1
  Ag  Ag18  1  0.16662598  0.16662627  0.54377999  1
  Ag  Ag19  1  0.16662693  0.49999789  0.54375997  1
  Ag  Ag20  1  0.16662595  0.83336946  0.54378013  1
  Ag  Ag21  1  0.49999764  0.16662719  0.54375997  1
  Ag  Ag22  1  0.49999757  0.49999775  0.54374129  1
  Ag  Ag23  1  0.49999769  0.83336871  0.54376010  1
  Ag  Ag24  1  0.83336936  0.16662624  0.54378010  1
  Ag  Ag25  1  0.83336857  0.49999792  0.54376007  1
  Ag  Ag26  1  0.83336939  0.83336949  0.54378041  1
