# generated using pymatgen
data_Au
_symmetry_space_group_name_H-M   'P 1'
_cell_length_a   8.57606266
_cell_length_b   8.57606266
_cell_length_c   23.65109797
_cell_angle_alpha   88.12641697
_cell_angle_beta   88.12641697
_cell_angle_gamma   63.40130658
_symmetry_Int_Tables_number   1
_chemical_formula_structural   Au
_chemical_formula_sum   Au27
_cell_volume   1554.26011481
_cell_formula_units_Z   27
loop_
 _symmetry_equiv_pos_site_id
 _symmetry_equiv_pos_as_xyz
  1  'x, y, z'
loop_
 _atom_site_type_symbol
 _atom_site_label
 _atom_site_symmetry_multiplicity
 _atom_site_fract_x
 _atom_site_fract_y
 _atom_site_fract_z
 _atom_site_occupancy
  Au  Au0  1  0.20124435  0.20124428  0.60658022  1
  Au  Au1  1  0.20123129  0.53456392  0.60657109  1
  Au  Au2  1  0.20124157  0.86790697  0.60656484  1
  Au  Au3  1  0.53456388  0.20123129  0.60657112  1
  Au  Au4  1  0.53458324  0.53458321  0.60657627  1
  Au  Au5  1  0.53457483  0.86790141  0.60658169  1
  Au  Au6  1  0.86790699  0.20124154  0.60656478  1
  Au  Au7  1  0.86790141  0.53457481  0.60658173  1
  Au  Au8  1  0.86792851  0.86792845  0.60658925  1
  Au  Au9  1  0.00027163  0.33363804  0.50339043  1
  Au  Au10  1  0.00027888  0.66695279  0.50340003  1
  Au  Au11  1  0.00029744  0.00029738  0.50337814  1
  Au  Au12  1  0.33361382  0.33361381  0.50339589  1
  Au  Au13  1  0.33363721  0.66692320  0.50339776  1
  Au  Au14  1  0.33363802  0.00027165  0.50339043  1
  Au  Au15  1  0.66692322  0.33363721  0.50339777  1
  Au  Au16  1  0.66695081  0.66695075  0.50340383  1
  Au  Au17  1  0.66695283  0.00027887  0.50340001  1
  Au  Au18  1  0.13333300  0.13333300  0.40000000  1
  Au  Au19  1  0.13333300  0.46666600  0.40000000  1
  Au  Au20  1  0.13333300  0.80000000  0.40000000  1
  Au  Au21  1  0.46666600  0.13333300  0.40000000  1
  Au  Au22  1  0.46666700  0.46666700  0.40000000  1
  Au  Au23  1  0.46666700  0.80000000  0.40000000  1
  Au  Au24  1  0.80000000  0.13333300  0.40000000  1
  Au  Au25  1  0.80000000  0.46666700  0.40000000  1
  Au  Au26  1  0.80000000  0.80000000  0.40000000  1
