# generated using pymatgen
data_Ag26Pt
_symmetry_space_group_name_H-M   'P 1'
_cell_length_a   8.60496519
_cell_length_b   8.60496881
_cell_length_c   23.47925300
_cell_angle_alpha   90.00483404
_cell_angle_beta   93.49762144
_cell_angle_gamma   119.99565775
_symmetry_Int_Tables_number   1
_chemical_formula_structural   Ag26Pt
_chemical_formula_sum   'Ag26 Pt1'
_cell_volume   1501.93330901
_cell_formula_units_Z   1
loop_
 _symmetry_equiv_pos_site_id
 _symmetry_equiv_pos_as_xyz
  1  'x, y, z'
loop_
 _atom_site_type_symbol
 _atom_site_label
 _atom_site_symmetry_multiplicity
 _atom_site_fract_x
 _atom_site_fract_y
 _atom_site_fract_z
 _atom_site_occupancy
  Ag  Ag0  1  0.20000000  0.26666700  0.40000000  1
  Ag  Ag1  1  0.20000000  0.60000000  0.40000000  1
  Ag  Ag2  1  0.20000000  0.93333300  0.40000000  1
  Ag  Ag3  1  0.53333300  0.26666700  0.40000000  1
  Ag  Ag4  1  0.53333300  0.60000000  0.40000000  1
  Ag  Ag5  1  0.53333300  0.93333300  0.40000000  1
  Ag  Ag6  1  0.86666700  0.26666700  0.40000000  1
  Ag  Ag7  1  0.86666700  0.60000000  0.40000000  1
  Ag  Ag8  1  0.86666700  0.93333300  0.40000000  1
  Ag  Ag9  1  0.33264682  0.16519323  0.50033638  1
  Ag  Ag10  1  0.33264281  0.50078302  0.50033751  1
  Ag  Ag11  1  0.33419433  0.83376902  0.50278015  1
  Ag  Ag12  1  0.66752729  0.16641602  0.50190505  1
  Ag  Ag13  1  0.66823126  0.50077971  0.50033634  1
  Ag  Ag14  1  0.66752241  0.83443069  0.50190671  1
  Ag  Ag15  1  0.99951875  0.16642508  0.50190636  1
  Ag  Ag16  1  0.00047601  0.50005389  0.50278022  1
  Ag  Ag17  1  0.00047790  0.83377173  0.50277966  1
  Ag  Ag18  1  0.13737447  0.07024683  0.60379033  1
  Ag  Ag19  1  0.13736087  0.40047766  0.60379007  1
  Ag  Ag20  1  0.13422746  0.73379861  0.60405205  1
  Ag  Ag21  1  0.46743014  0.07023923  0.60378690  1
  Ag  Ag22  1  0.46742354  0.73052688  0.60378766  1
  Ag  Ag23  1  0.80064034  0.06697764  0.60299997  1
  Ag  Ag24  1  0.79768254  0.40048118  0.60378850  1
  Ag  Ag25  1  0.79767674  0.73052868  0.60378832  1
  Pt  Pt26  1  0.46555198  0.39945138  0.59507895  1
