# generated using pymatgen
data_FeTe4Mo3
_symmetry_space_group_name_H-M   'P 1'
_cell_length_a   7.22312727
_cell_length_b   7.08682392
_cell_length_c   29.37250900
_cell_angle_alpha   91.57772794
_cell_angle_beta   98.12045943
_cell_angle_gamma   93.99332592
_symmetry_Int_Tables_number   1
_chemical_formula_structural   FeTe4Mo3
_chemical_formula_sum   'Fe4 Te16 Mo12'
_cell_volume   1483.79736813
_cell_formula_units_Z   4
loop_
 _symmetry_equiv_pos_site_id
 _symmetry_equiv_pos_as_xyz
  1  'x, y, z'
loop_
 _atom_site_type_symbol
 _atom_site_label
 _atom_site_symmetry_multiplicity
 _atom_site_fract_x
 _atom_site_fract_y
 _atom_site_fract_z
 _atom_site_occupancy
  Fe  Fe0  1  0.95121232  0.12484480  0.46952280  1
  Fe  Fe1  1  0.84825203  0.10217910  0.66845167  1
  Fe  Fe2  1  0.05693100  0.86054300  0.27656700  1
  Fe  Fe3  1  0.04858375  0.87782764  0.52219421  1
  Mo  Mo4  1  0.24900047  0.55173068  0.34886251  1
  Mo  Mo5  1  0.25166232  0.54449024  0.59703418  1
  Mo  Mo6  1  0.75155248  0.45016157  0.39636911  1
  Mo  Mo7  1  0.75993293  0.44341647  0.64089158  1
  Mo  Mo8  1  0.41586498  0.24917408  0.38213129  1
  Mo  Mo9  1  0.42706636  0.23690309  0.62885635  1
  Mo  Mo10  1  0.57854393  0.75182927  0.36270899  1
  Mo  Mo11  1  0.58767674  0.74954834  0.60924655  1
  Mo  Mo12  1  0.53260700  0.41261200  0.31013000  1
  Mo  Mo13  1  0.53812271  0.41546745  0.55544321  1
  Mo  Mo14  1  0.46368846  0.58737437  0.43613898  1
  Mo  Mo15  1  0.47544627  0.56957596  0.67754295  1
  Te  Te16  1  0.13148432  0.38078190  0.42704979  1
  Te  Te17  1  0.13894768  0.36029125  0.67717643  1
  Te  Te18  1  0.86624900  0.61870000  0.31855000  1
  Te  Te19  1  0.87375503  0.62082385  0.56498743  1
  Te  Te20  1  0.73106900  0.11857500  0.34560400  1
  Te  Te21  1  0.72941885  0.10739280  0.58250502  1
  Te  Te22  1  0.26733444  0.88182794  0.40054540  1
  Te  Te23  1  0.27990714  0.87275087  0.65092177  1
  Te  Te24  1  0.38690600  0.74931100  0.27459600  1
  Te  Te25  1  0.37899135  0.74607176  0.52194373  1
  Te  Te26  1  0.61641590  0.25208882  0.46940100  1
  Te  Te27  1  0.62969172  0.25953052  0.71821274  1
  Te  Te28  1  0.18432800  0.21398100  0.29715900  1
  Te  Te29  1  0.19388054  0.21874823  0.54372610  1
  Te  Te30  1  0.80897619  0.78128238  0.44857980  1
  Te  Te31  1  0.81886406  0.76387010  0.69950900  1
