# generated using pymatgen
data_Pd
_symmetry_space_group_name_H-M   'P 1'
_cell_length_a   8.25688963
_cell_length_b   8.25682385
_cell_length_c   22.52889700
_cell_angle_alpha   86.49742100
_cell_angle_beta   86.49797035
_cell_angle_gamma   59.99972739
_symmetry_Int_Tables_number   1
_chemical_formula_structural   Pd
_chemical_formula_sum   Pd27
_cell_volume   1326.83127031
_cell_formula_units_Z   27
loop_
 _symmetry_equiv_pos_site_id
 _symmetry_equiv_pos_as_xyz
  1  'x, y, z'
loop_
 _atom_site_type_symbol
 _atom_site_label
 _atom_site_symmetry_multiplicity
 _atom_site_fract_x
 _atom_site_fract_y
 _atom_site_fract_z
 _atom_site_occupancy
  Pd  Pd0  1  0.06666700  0.06666600  0.40000000  1
  Pd  Pd1  1  0.06666700  0.39999900  0.40000000  1
  Pd  Pd2  1  0.06666700  0.73333300  0.40000000  1
  Pd  Pd3  1  0.40000000  0.06666600  0.40000000  1
  Pd  Pd4  1  0.40000000  0.39999900  0.40000000  1
  Pd  Pd5  1  0.40000000  0.73333300  0.40000000  1
  Pd  Pd6  1  0.73333300  0.06666600  0.40000000  1
  Pd  Pd7  1  0.73333300  0.39999900  0.40000000  1
  Pd  Pd8  1  0.73333300  0.73333300  0.40000000  1
  Pd  Pd9  1  0.16661782  0.16661628  0.50041571  1
  Pd  Pd10  1  0.16661786  0.49994990  0.50041519  1
  Pd  Pd11  1  0.16661810  0.83328341  0.50041551  1
  Pd  Pd12  1  0.49995123  0.16661646  0.50041538  1
  Pd  Pd13  1  0.49995135  0.49995000  0.50041540  1
  Pd  Pd14  1  0.49995102  0.83328317  0.50041567  1
  Pd  Pd15  1  0.83328467  0.16661670  0.50041535  1
  Pd  Pd16  1  0.83328446  0.49994973  0.50041554  1
  Pd  Pd17  1  0.83328448  0.83328318  0.50041536  1
  Pd  Pd18  1  0.26655110  0.26654848  0.60090981  1
  Pd  Pd19  1  0.26655116  0.59988164  0.60090944  1
  Pd  Pd20  1  0.26655132  0.93321514  0.60091033  1
  Pd  Pd21  1  0.59988460  0.26654841  0.60090953  1
  Pd  Pd22  1  0.59988471  0.59988185  0.60091016  1
  Pd  Pd23  1  0.59988442  0.93321498  0.60090999  1
  Pd  Pd24  1  0.93321787  0.26654866  0.60091019  1
  Pd  Pd25  1  0.93321784  0.59988162  0.60090990  1
  Pd  Pd26  1  0.93321768  0.93321527  0.60090948  1
