# generated using pymatgen
data_Pt
_symmetry_space_group_name_H-M   'P 1'
_cell_length_a   8.30585400
_cell_length_b   8.30548202
_cell_length_c   23.49208800
_cell_angle_alpha   89.99751652
_cell_angle_beta   89.99900665
_cell_angle_gamma   89.99635752
_symmetry_Int_Tables_number   1
_chemical_formula_structural   Pt
_chemical_formula_sum   Pt27
_cell_volume   1620.58103859
_cell_formula_units_Z   27
loop_
 _symmetry_equiv_pos_site_id
 _symmetry_equiv_pos_as_xyz
  1  'x, y, z'
loop_
 _atom_site_type_symbol
 _atom_site_label
 _atom_site_symmetry_multiplicity
 _atom_site_fract_x
 _atom_site_fract_y
 _atom_site_fract_z
 _atom_site_occupancy
  Pt  Pt0  1  0.00000000  0.00000000  0.45833200  1
  Pt  Pt1  1  0.00000000  0.33333400  0.45833200  1
  Pt  Pt2  1  0.00000000  0.66666700  0.45833200  1
  Pt  Pt3  1  0.33333400  0.00000000  0.45833200  1
  Pt  Pt4  1  0.33333400  0.33333400  0.45833200  1
  Pt  Pt5  1  0.33333400  0.66666700  0.45833200  1
  Pt  Pt6  1  0.66666700  0.00000000  0.45833200  1
  Pt  Pt7  1  0.66666700  0.33333400  0.45833200  1
  Pt  Pt8  1  0.66666700  0.66666700  0.45833200  1
  Pt  Pt9  1  0.99999629  0.99997935  0.62485043  1
  Pt  Pt10  1  0.99999702  0.33331443  0.62484987  1
  Pt  Pt11  1  0.99999714  0.66664762  0.62485149  1
  Pt  Pt12  1  0.33332084  0.99998065  0.62485042  1
  Pt  Pt13  1  0.33332114  0.33331403  0.62485102  1
  Pt  Pt14  1  0.33331964  0.66664648  0.62485070  1
  Pt  Pt15  1  0.66665708  0.99998080  0.62485082  1
  Pt  Pt16  1  0.66665592  0.33331320  0.62485062  1
  Pt  Pt17  1  0.66665730  0.66664723  0.62485054  1
  Pt  Pt18  1  0.16666174  0.16665694  0.54159169  1
  Pt  Pt19  1  0.16666162  0.49999062  0.54159173  1
  Pt  Pt20  1  0.16666149  0.83332380  0.54159182  1
  Pt  Pt21  1  0.49999995  0.16665699  0.54159564  1
  Pt  Pt22  1  0.49999990  0.49999037  0.54159558  1
  Pt  Pt23  1  0.49999993  0.83332397  0.54159561  1
  Pt  Pt24  1  0.83332583  0.16665697  0.54159665  1
  Pt  Pt25  1  0.83332599  0.49999063  0.54159669  1
  Pt  Pt26  1  0.83332608  0.83332382  0.54159677  1
