# generated using pymatgen
data_FeMo3Se4
_symmetry_space_group_name_H-M   'P 1'
_cell_length_a   6.73059675
_cell_length_b   6.68252955
_cell_length_c   28.41042900
_cell_angle_alpha   94.71078376
_cell_angle_beta   91.18717718
_cell_angle_gamma   96.76332947
_symmetry_Int_Tables_number   1
_chemical_formula_structural   FeMo3Se4
_chemical_formula_sum   'Fe4 Mo12 Se16'
_cell_volume   1264.05235895
_cell_formula_units_Z   4
loop_
 _symmetry_equiv_pos_site_id
 _symmetry_equiv_pos_as_xyz
  1  'x, y, z'
loop_
 _atom_site_type_symbol
 _atom_site_label
 _atom_site_symmetry_multiplicity
 _atom_site_fract_x
 _atom_site_fract_y
 _atom_site_fract_z
 _atom_site_occupancy
  Fe  Fe0  1  0.92167484  0.14921488  0.48131726  1
  Fe  Fe1  1  0.84488809  0.11439692  0.65804552  1
  Fe  Fe2  1  0.08366100  0.85003700  0.25310200  1
  Fe  Fe3  1  0.08978192  0.85418331  0.48791416  1
  Mo  Mo4  1  0.23343026  0.53736020  0.34838125  1
  Mo  Mo5  1  0.23166783  0.54199456  0.58577474  1
  Mo  Mo6  1  0.76766562  0.46050114  0.38776840  1
  Mo  Mo7  1  0.76621777  0.46216299  0.62474980  1
  Mo  Mo8  1  0.41058639  0.22743258  0.37771397  1
  Mo  Mo9  1  0.40605552  0.23179354  0.61603351  1
  Mo  Mo10  1  0.59133786  0.77425387  0.35835111  1
  Mo  Mo11  1  0.59025345  0.77038436  0.59541133  1
  Mo  Mo12  1  0.54876300  0.41297700  0.30450800  1
  Mo  Mo13  1  0.54857039  0.41532353  0.54118644  1
  Mo  Mo14  1  0.45133547  0.58750882  0.43243399  1
  Mo  Mo15  1  0.45036596  0.58970469  0.66704482  1
  Se  Se16  1  0.11653607  0.36134215  0.42436897  1
  Se  Se17  1  0.11666116  0.37587512  0.66297132  1
  Se  Se18  1  0.88453700  0.63734700  0.31138600  1
  Se  Se19  1  0.88547056  0.64056134  0.54921596  1
  Se  Se20  1  0.73364095  0.13587046  0.33433307  1
  Se  Se21  1  0.73558549  0.12909360  0.57020282  1
  Se  Se22  1  0.26086329  0.86548488  0.40040514  1
  Se  Se23  1  0.26970661  0.86972450  0.63878311  1
  Se  Se24  1  0.39326800  0.73478000  0.28166600  1
  Se  Se25  1  0.39291241  0.73558787  0.51868731  1
  Se  Se26  1  0.60749135  0.26491990  0.45494462  1
  Se  Se27  1  0.59346040  0.28704410  0.69805468  1
  Se  Se28  1  0.21444700  0.18780600  0.29890600  1
  Se  Se29  1  0.21224411  0.19317374  0.53634538  1
  Se  Se30  1  0.78622387  0.81174393  0.43753670  1
  Se  Se31  1  0.79417150  0.78269629  0.68094136  1
