# generated using pymatgen
data_Fe(Mo3S4)2
_symmetry_space_group_name_H-M   'P 1'
_cell_length_a   6.45357383
_cell_length_b   6.40729292
_cell_length_c   27.84326400
_cell_angle_alpha   93.27559587
_cell_angle_beta   96.42128096
_cell_angle_gamma   96.53695481
_symmetry_Int_Tables_number   1
_chemical_formula_structural   Fe(Mo3S4)2
_chemical_formula_sum   'Fe2 Mo12 S16'
_cell_volume   1133.80606000
_cell_formula_units_Z   2
loop_
 _symmetry_equiv_pos_site_id
 _symmetry_equiv_pos_as_xyz
  1  'x, y, z'
loop_
 _atom_site_type_symbol
 _atom_site_label
 _atom_site_symmetry_multiplicity
 _atom_site_fract_x
 _atom_site_fract_y
 _atom_site_fract_z
 _atom_site_occupancy
  Fe  Fe0  1  0.94263615  0.15246036  0.46050562  1
  Fe  Fe1  1  0.88224654  0.11354334  0.65617266  1
  Mo  Mo2  1  0.21324400  0.54241800  0.34209900  1
  Mo  Mo3  1  0.21795527  0.54589938  0.57567118  1
  Mo  Mo4  1  0.79601140  0.45798322  0.38855220  1
  Mo  Mo5  1  0.78359154  0.46019556  0.61833126  1
  Mo  Mo6  1  0.41100913  0.21983494  0.37465448  1
  Mo  Mo7  1  0.40861930  0.21943176  0.60740576  1
  Mo  Mo8  1  0.59439000  0.78338100  0.35611600  1
  Mo  Mo9  1  0.59215973  0.78081126  0.58764053  1
  Mo  Mo10  1  0.53839000  0.41017300  0.30039200  1
  Mo  Mo11  1  0.53994936  0.41587631  0.53165599  1
  Mo  Mo12  1  0.46456089  0.60100929  0.43249023  1
  Mo  Mo13  1  0.46860695  0.58723183  0.66127863  1
  S  S14  1  0.14396437  0.36670301  0.41719858  1
  S  S15  1  0.14057986  0.37108757  0.65114459  1
  S  S16  1  0.86398200  0.63520500  0.31550800  1
  S  S17  1  0.86721560  0.64348257  0.54646600  1
  S  S18  1  0.72141400  0.13929400  0.33709200  1
  S  S19  1  0.71962782  0.13521097  0.56643924  1
  S  S20  1  0.27894050  0.86240169  0.39356910  1
  S  S21  1  0.28293923  0.86298610  0.62939111  1
  S  S22  1  0.37280800  0.72589200  0.28016400  1
  S  S23  1  0.36997322  0.72855136  0.51193163  1
  S  S24  1  0.62536677  0.27548379  0.45231569  1
  S  S25  1  0.62535960  0.27927112  0.68754453  1
  S  S26  1  0.19164500  0.20201400  0.29537700  1
  S  S27  1  0.19115736  0.20986864  0.52753822  1
  S  S28  1  0.81467848  0.80462261  0.43580218  1
  S  S29  1  0.81361105  0.77847096  0.67148214  1
