# generated using pymatgen
data_FeMo3Se4
_symmetry_space_group_name_H-M   'P 1'
_cell_length_a   6.73059675
_cell_length_b   6.68252955
_cell_length_c   28.41042900
_cell_angle_alpha   94.71078376
_cell_angle_beta   91.18717718
_cell_angle_gamma   96.76332947
_symmetry_Int_Tables_number   1
_chemical_formula_structural   FeMo3Se4
_chemical_formula_sum   'Fe4 Mo12 Se16'
_cell_volume   1264.05235895
_cell_formula_units_Z   4
loop_
 _symmetry_equiv_pos_site_id
 _symmetry_equiv_pos_as_xyz
  1  'x, y, z'
loop_
 _atom_site_type_symbol
 _atom_site_label
 _atom_site_symmetry_multiplicity
 _atom_site_fract_x
 _atom_site_fract_y
 _atom_site_fract_z
 _atom_site_occupancy
  Fe  Fe0  1  0.91004185  0.16082459  0.47965201  1
  Fe  Fe1  1  0.82246158  0.09881834  0.64944131  1
  Fe  Fe2  1  0.08366100  0.85003700  0.25310200  1
  Fe  Fe3  1  0.10350649  0.84495514  0.48663609  1
  Mo  Mo4  1  0.23100290  0.53851329  0.34792875  1
  Mo  Mo5  1  0.22967814  0.53276752  0.58409815  1
  Mo  Mo6  1  0.76895162  0.46157777  0.38769338  1
  Mo  Mo7  1  0.76499331  0.45517644  0.62294602  1
  Mo  Mo8  1  0.41010497  0.22767063  0.37716972  1
  Mo  Mo9  1  0.40737681  0.22053710  0.61356158  1
  Mo  Mo10  1  0.59117954  0.77396083  0.35847084  1
  Mo  Mo11  1  0.58971681  0.76874996  0.59475537  1
  Mo  Mo12  1  0.54876300  0.41297700  0.30450800  1
  Mo  Mo13  1  0.54807683  0.41186135  0.53958133  1
  Mo  Mo14  1  0.45054978  0.58897509  0.43218328  1
  Mo  Mo15  1  0.44604623  0.57748875  0.66483763  1
  Se  Se16  1  0.11570311  0.36192561  0.42369896  1
  Se  Se17  1  0.11170205  0.35427380  0.65998300  1
  Se  Se18  1  0.88453700  0.63734700  0.31138600  1
  Se  Se19  1  0.88520614  0.63968891  0.54812301  1
  Se  Se20  1  0.73327877  0.13581092  0.33436466  1
  Se  Se21  1  0.73515066  0.12333655  0.56646715  1
  Se  Se22  1  0.25893685  0.86644490  0.40028342  1
  Se  Se23  1  0.26512024  0.86008509  0.63746762  1
  Se  Se24  1  0.39326800  0.73478000  0.28166600  1
  Se  Se25  1  0.39551253  0.73104276  0.51832641  1
  Se  Se26  1  0.60277750  0.26509565  0.45384061  1
  Se  Se27  1  0.59479116  0.27753102  0.69570833  1
  Se  Se28  1  0.21444700  0.18780600  0.29890600  1
  Se  Se29  1  0.21135422  0.18565405  0.53289038  1
  Se  Se30  1  0.78872439  0.81316186  0.43835039  1
  Se  Se31  1  0.78882975  0.77729172  0.67923972  1
