# generated using pymatgen
data_Te4Mo3
_symmetry_space_group_name_H-M   'P 1'
_cell_length_a   7.04082001
_cell_length_b   7.04195269
_cell_length_c   29.08263700
_cell_angle_alpha   92.42233475
_cell_angle_beta   92.43396473
_cell_angle_gamma   92.45457226
_symmetry_Int_Tables_number   1
_chemical_formula_structural   Te4Mo3
_chemical_formula_sum   'Te16 Mo12'
_cell_volume   1437.92269216
_cell_formula_units_Z   4
loop_
 _symmetry_equiv_pos_site_id
 _symmetry_equiv_pos_as_xyz
  1  'x, y, z'
loop_
 _atom_site_type_symbol
 _atom_site_label
 _atom_site_symmetry_multiplicity
 _atom_site_fract_x
 _atom_site_fract_y
 _atom_site_fract_z
 _atom_site_occupancy
  Mo  Mo0  1  0.24253607  0.54754697  0.35188188  1
  Mo  Mo1  1  0.24327990  0.54365694  0.59513765  1
  Mo  Mo2  1  0.75705717  0.45813487  0.39024094  1
  Mo  Mo3  1  0.75955972  0.45310480  0.63233715  1
  Mo  Mo4  1  0.41832322  0.24483067  0.38156096  1
  Mo  Mo5  1  0.42648003  0.23694123  0.62366546  1
  Mo  Mo6  1  0.57483487  0.76010208  0.36096197  1
  Mo  Mo7  1  0.57983343  0.75565675  0.60306655  1
  Mo  Mo8  1  0.54335900  0.41937700  0.30833700  1
  Mo  Mo9  1  0.54377217  0.42016140  0.54992087  1
  Mo  Mo10  1  0.45471187  0.58135774  0.43478588  1
  Mo  Mo11  1  0.45828029  0.57438003  0.67500008  1
  Te  Te12  1  0.11522779  0.37611067  0.43168893  1
  Te  Te13  1  0.11683396  0.36996853  0.67495873  1
  Te  Te14  1  0.88219500  0.62512800  0.31051700  1
  Te  Te15  1  0.88512642  0.62548007  0.55345968  1
  Te  Te16  1  0.74986000  0.11788600  0.34077800  1
  Te  Te17  1  0.74839064  0.11483894  0.58123732  1
  Te  Te18  1  0.25045049  0.88448347  0.40326614  1
  Te  Te19  1  0.25585824  0.87956603  0.64934897  1
  Te  Te20  1  0.37496100  0.74994600  0.27852400  1
  Te  Te21  1  0.37144358  0.75028826  0.52174536  1
  Te  Te22  1  0.62570112  0.25066777  0.46325456  1
  Te  Te23  1  0.62312020  0.25928620  0.70747825  1
  Te  Te24  1  0.20510400  0.20534500  0.29972100  1
  Te  Te25  1  0.20657222  0.20540998  0.54312094  1
  Te  Te26  1  0.79193947  0.79522597  0.44251197  1
  Te  Te27  1  0.78559656  0.79330798  0.68574833  1
