# generated using pymatgen
data_Ag
_symmetry_space_group_name_H-M   'P 1'
_cell_length_a   8.60517300
_cell_length_b   8.60496305
_cell_length_c   24.34014600
_cell_angle_alpha   89.99904118
_cell_angle_beta   89.99896131
_cell_angle_gamma   90.00613242
_symmetry_Int_Tables_number   1
_chemical_formula_structural   Ag
_chemical_formula_sum   Ag27
_cell_volume   1802.31954385
_cell_formula_units_Z   27
loop_
 _symmetry_equiv_pos_site_id
 _symmetry_equiv_pos_as_xyz
  1  'x, y, z'
loop_
 _atom_site_type_symbol
 _atom_site_label
 _atom_site_symmetry_multiplicity
 _atom_site_fract_x
 _atom_site_fract_y
 _atom_site_fract_z
 _atom_site_occupancy
  Ag  Ag0  1  0.33333300  0.00000000  0.45833300  1
  Ag  Ag1  1  0.33333300  0.33333300  0.45833300  1
  Ag  Ag2  1  0.33333300  0.66666700  0.45833300  1
  Ag  Ag3  1  0.66666700  0.00000000  0.45833300  1
  Ag  Ag4  1  0.66666700  0.33333300  0.45833300  1
  Ag  Ag5  1  0.66666700  0.66666700  0.45833300  1
  Ag  Ag6  1  0.00000000  0.00000000  0.45833300  1
  Ag  Ag7  1  0.00000000  0.33333300  0.45833300  1
  Ag  Ag8  1  0.00000000  0.66666700  0.45833300  1
  Ag  Ag9  1  0.33335349  0.99999475  0.62838166  1
  Ag  Ag10  1  0.33336240  0.33336019  0.62836477  1
  Ag  Ag11  1  0.33335894  0.66663201  0.62836470  1
  Ag  Ag12  1  0.66663422  0.99999733  0.62838083  1
  Ag  Ag13  1  0.66662974  0.33336193  0.62836534  1
  Ag  Ag14  1  0.66663059  0.66662774  0.62836442  1
  Ag  Ag15  1  0.99999766  0.99999409  0.62839919  1
  Ag  Ag16  1  0.99999302  0.33335643  0.62838115  1
  Ag  Ag17  1  0.99999566  0.66663657  0.62838142  1
  Ag  Ag18  1  0.16663790  0.16663806  0.54340166  1
  Ag  Ag19  1  0.16663809  0.49999842  0.54338654  1
  Ag  Ag20  1  0.16663790  0.83335843  0.54340199  1
  Ag  Ag21  1  0.49999806  0.16663841  0.54338671  1
  Ag  Ag22  1  0.49999810  0.49999825  0.54337450  1
  Ag  Ag23  1  0.49999800  0.83335823  0.54338664  1
  Ag  Ag24  1  0.83335847  0.16663827  0.54340188  1
  Ag  Ag25  1  0.83335827  0.49999832  0.54338683  1
  Ag  Ag26  1  0.83335860  0.83335837  0.54340202  1
