# generated using pymatgen
data_FeMo3Se4
_symmetry_space_group_name_H-M   'P 1'
_cell_length_a   6.73059675
_cell_length_b   6.68252955
_cell_length_c   28.41042900
_cell_angle_alpha   94.71078376
_cell_angle_beta   91.18717718
_cell_angle_gamma   96.76332947
_symmetry_Int_Tables_number   1
_chemical_formula_structural   FeMo3Se4
_chemical_formula_sum   'Fe4 Mo12 Se16'
_cell_volume   1264.05235895
_cell_formula_units_Z   4
loop_
 _symmetry_equiv_pos_site_id
 _symmetry_equiv_pos_as_xyz
  1  'x, y, z'
loop_
 _atom_site_type_symbol
 _atom_site_label
 _atom_site_symmetry_multiplicity
 _atom_site_fract_x
 _atom_site_fract_y
 _atom_site_fract_z
 _atom_site_occupancy
  Fe  Fe0  1  0.92483518  0.15004269  0.47988188  1
  Fe  Fe1  1  0.81930050  0.10447872  0.65065618  1
  Fe  Fe2  1  0.08366100  0.85003700  0.25310200  1
  Fe  Fe3  1  0.08795106  0.85112517  0.48675242  1
  Mo  Mo4  1  0.23136337  0.53743085  0.34779966  1
  Mo  Mo5  1  0.22968991  0.53751109  0.58556916  1
  Mo  Mo6  1  0.76894755  0.46109978  0.38758828  1
  Mo  Mo7  1  0.76345710  0.45950687  0.62409303  1
  Mo  Mo8  1  0.41107980  0.22862663  0.37744956  1
  Mo  Mo9  1  0.40659975  0.22458891  0.61544397  1
  Mo  Mo10  1  0.59087111  0.77390464  0.35817219  1
  Mo  Mo11  1  0.58774905  0.77131220  0.59552451  1
  Mo  Mo12  1  0.54876300  0.41297700  0.30450800  1
  Mo  Mo13  1  0.54719260  0.41476283  0.54073999  1
  Mo  Mo14  1  0.45086207  0.58837401  0.43205839  1
  Mo  Mo15  1  0.44553917  0.58271940  0.66646765  1
  Se  Se16  1  0.11661869  0.36331286  0.42383422  1
  Se  Se17  1  0.11041139  0.35913753  0.66149780  1
  Se  Se18  1  0.88453700  0.63734700  0.31138600  1
  Se  Se19  1  0.88343558  0.64126013  0.54922110  1
  Se  Se20  1  0.73403477  0.13591053  0.33432931  1
  Se  Se21  1  0.73107529  0.12596445  0.56774038  1
  Se  Se22  1  0.26058467  0.86598266  0.39986034  1
  Se  Se23  1  0.26500260  0.86428889  0.63891117  1
  Se  Se24  1  0.39326800  0.73478000  0.28166600  1
  Se  Se25  1  0.38962756  0.73258848  0.51863645  1
  Se  Se26  1  0.60799949  0.26565804  0.45454898  1
  Se  Se27  1  0.59449325  0.28302492  0.69744176  1
  Se  Se28  1  0.21444700  0.18780600  0.29890600  1
  Se  Se29  1  0.21218437  0.19024681  0.53575469  1
  Se  Se30  1  0.78576113  0.81158006  0.43721401  1
  Se  Se31  1  0.78848114  0.78216676  0.67988656  1
