# generated using pymatgen
data_Pd
_symmetry_space_group_name_H-M   'P 1'
_cell_length_a   8.25688963
_cell_length_b   8.25682385
_cell_length_c   22.52889700
_cell_angle_alpha   86.49742100
_cell_angle_beta   86.49797035
_cell_angle_gamma   59.99972739
_symmetry_Int_Tables_number   1
_chemical_formula_structural   Pd
_chemical_formula_sum   Pd27
_cell_volume   1326.83127031
_cell_formula_units_Z   27
loop_
 _symmetry_equiv_pos_site_id
 _symmetry_equiv_pos_as_xyz
  1  'x, y, z'
loop_
 _atom_site_type_symbol
 _atom_site_label
 _atom_site_symmetry_multiplicity
 _atom_site_fract_x
 _atom_site_fract_y
 _atom_site_fract_z
 _atom_site_occupancy
  Pd  Pd0  1  0.06666700  0.06666600  0.40000000  1
  Pd  Pd1  1  0.06666700  0.39999900  0.40000000  1
  Pd  Pd2  1  0.06666700  0.73333300  0.40000000  1
  Pd  Pd3  1  0.40000000  0.06666600  0.40000000  1
  Pd  Pd4  1  0.40000000  0.39999900  0.40000000  1
  Pd  Pd5  1  0.40000000  0.73333300  0.40000000  1
  Pd  Pd6  1  0.73333300  0.06666600  0.40000000  1
  Pd  Pd7  1  0.73333300  0.39999900  0.40000000  1
  Pd  Pd8  1  0.73333300  0.73333300  0.40000000  1
  Pd  Pd9  1  0.16641640  0.16641087  0.50207330  1
  Pd  Pd10  1  0.16641802  0.49974803  0.50207250  1
  Pd  Pd11  1  0.16642390  0.83308759  0.50207278  1
  Pd  Pd12  1  0.49975126  0.16641434  0.50207251  1
  Pd  Pd13  1  0.49975860  0.49975271  0.50207278  1
  Pd  Pd14  1  0.49974827  0.83307940  0.50207319  1
  Pd  Pd15  1  0.83309078  0.16642096  0.50207289  1
  Pd  Pd16  1  0.83308233  0.49974440  0.50207288  1
  Pd  Pd17  1  0.83308586  0.83308050  0.50207247  1
  Pd  Pd18  1  0.26614698  0.26613754  0.60437064  1
  Pd  Pd19  1  0.26614800  0.59947268  0.60436677  1
  Pd  Pd20  1  0.26614230  0.93280008  0.60437332  1
  Pd  Pd21  1  0.59948082  0.26613938  0.60436698  1
  Pd  Pd22  1  0.59947611  0.59946656  0.60437244  1
  Pd  Pd23  1  0.59947952  0.93280500  0.60436980  1
  Pd  Pd24  1  0.93280875  0.26613413  0.60437316  1
  Pd  Pd25  1  0.93281314  0.59947079  0.60437000  1
  Pd  Pd26  1  0.93281508  0.93280556  0.60436671  1
